data_functionalizedCrystal
_audit_creation_method	'EQeq! by Chris Wilmer'
_symmetry_space_group_name_H-M	'P1'
_symmetry_Int_Tables_number	1
_symmetry_cell_setting	triclinic
loop_
_symmetry_equiv_pos_as_xyz
  x,y,z
_cell_length_a	12.2527
_cell_length_b	24.7184
_cell_length_c	31.2515
_cell_angle_alpha	90
_cell_angle_beta	90
_cell_angle_gamma	97.023
loop_
_atom_site_label
_atom_site_type_symbol
_atom_site_fract_x
_atom_site_fract_y
_atom_site_fract_z
_atom_site_charge
Zn	Zn	0.58961	0.20653	0.25907	1.21
Zn	Zn	0.3879	0.25377	0.27089	1.212
Zn	Zn	0.7014	0.43385	0.63883	1.212
Zn	Zn	0.29696	0.08104	0.87616	1.204
Zn	Zn	0.91039	0.29347	0.75907	1.21
Zn	Zn	0.1121	0.24623	0.77089	1.212
Zn	Zn	0.7986	0.06615	0.13883	1.212
Zn	Zn	0.20304	0.41896	0.37616	1.204
Zn	Zn	0.41039	0.79347	0.74093	1.21
Zn	Zn	0.6121	0.74623	0.72911	1.212
Zn	Zn	0.2986	0.56615	0.36117	1.212
Zn	Zn	0.70304	0.91896	0.12384	1.204
Zn	Zn	0.08961	0.70653	0.24093	1.21
Zn	Zn	0.8879	0.75377	0.22911	1.212
Zn	Zn	0.2014	0.93385	0.86117	1.211
Zn	Zn	0.79696	0.58104	0.62384	1.203
H 	H 	0.6533	0.1105	0.2093	0.036
H 	H 	0.7049	0.1625	0.1822	0.042
H 	H 	0.8184	0.2377	0.2176	0.039
H 	H 	0.8416	0.235	0.2679	0.039
H 	H 	0.7634	0.1553	0.3095	0.04
H 	H 	0.6899	0.1058	0.2863	0.039
H 	H 	0.9811	0.1374	0.1879	0.029
H 	H 	0.902	0.1789	0.1696	0.037
H 	H 	0.7734	0.0474	0.2386	0.031
H 	H 	0.903	0.0576	0.2298	0.042
H 	H 	0.9575	0.1721	0.2954	0.041
H 	H 	0.0136	0.1329	0.2636	0.037
H 	H 	0.2734	0.3093	0.3434	0.036
H 	H 	0.3376	0.3554	0.3136	0.042
H 	H 	0.3097	0.3525	0.236	0.045
H 	H 	0.2292	0.3037	0.215	0.043
H 	H 	0.132	0.2325	0.2611	0.035
H 	H 	0.1491	0.2356	0.3119	0.034
H 	H 	0.1063	0.4184	0.2833	0.041
H 	H 	0.2364	0.4209	0.2767	0.033
H 	H 	0.0751	0.3047	0.3526	0.035
H 	H 	0.0087	0.3481	0.3291	0.034
H 	H 	0.0345	0.2985	0.2253	0.044
H 	H 	0.9845	0.3445	0.2526	0.04
H 	H 	0.5417	0.4221	0.2319	0.056
H 	H 	0.5626	0.5211	0.2116	0.062
H 	H 	0.6699	0.6049	0.2089	0.038
H 	H 	0.9346	0.5377	0.2524	0.058
H 	H 	0.9151	0.4388	0.2705	0.063
H 	H 	0.8073	0.3555	0.2757	0.038
H 	H 	0.263	0.2338	0.1412	0.039
H 	H 	0.2141	0.2121	0.0714	0.064
H 	H 	0.2631	0.1778	0.9993	0.062
H 	H 	0.5684	0.1353	0.9792	0.045
H 	H 	0.6185	0.1589	0.0488	0.069
H 	H 	0.5709	0.1944	0.1202	0.068
H 	H 	0.4406	0.298	0.4	0.062
H 	H 	0.414	0.3535	0.465	0.069
H 	H 	0.4729	0.3838	0.5322	0.043
H 	H 	0.7146	0.2858	0.5307	0.06
H 	H 	0.7433	0.2309	0.4648	0.064
H 	H 	0.6931	0.2058	0.3958	0.039
H 	H 	0.4157	0.4497	0.6526	0.043
H 	H 	0.226	0.3993	0.6535	0.063
H 	H 	0.0375	0.4008	0.6512	0.044
H 	H 	0.0799	0.5641	0.6293	0.054
H 	H 	0.2703	0.613	0.6232	0.068
H 	H 	0.4584	0.6125	0.6288	0.039
H 	H 	0.8467	0.3895	0.7093	0.036
H 	H 	0.7951	0.3375	0.6822	0.042
H 	H 	0.6816	0.2623	0.7176	0.039
H 	H 	0.6584	0.265	0.7679	0.039
H 	H 	0.7366	0.3447	0.8095	0.04
H 	H 	0.8101	0.3942	0.7863	0.039
H 	H 	0.5189	0.3626	0.6879	0.029
H 	H 	0.598	0.3211	0.6696	0.037
H 	H 	0.7266	0.4526	0.7386	0.031
H 	H 	0.597	0.4424	0.7298	0.042
H 	H 	0.5425	0.3279	0.7954	0.041
H 	H 	0.4864	0.3671	0.7636	0.038
H 	H 	0.2266	0.1907	0.8434	0.036
H 	H 	0.1624	0.1446	0.8136	0.042
H 	H 	0.1903	0.1475	0.736	0.045
H 	H 	0.2708	0.1963	0.715	0.043
H 	H 	0.368	0.2675	0.7611	0.035
H 	H 	0.3509	0.2644	0.8119	0.034
H 	H 	0.3937	0.0816	0.7833	0.042
H 	H 	0.2636	0.0791	0.7767	0.033
H 	H 	0.4249	0.1953	0.8526	0.035
H 	H 	0.4913	0.1519	0.8291	0.034
H 	H 	0.4655	0.2015	0.7253	0.043
H 	H 	0.5155	0.1555	0.7526	0.039
H 	H 	0.9583	0.0779	0.7319	0.056
H 	H 	0.9374	0.9789	0.7116	0.062
H 	H 	0.8301	0.8951	0.7089	0.038
H 	H 	0.5654	0.9623	0.7524	0.057
H 	H 	0.5849	0.0612	0.7705	0.063
H 	H 	0.6927	0.1445	0.7757	0.038
H 	H 	0.237	0.2662	0.6412	0.039
H 	H 	0.2859	0.2879	0.5714	0.064
H 	H 	0.2369	0.3222	0.4993	0.062
H 	H 	0.9316	0.3647	0.4792	0.045
H 	H 	0.8815	0.3411	0.5488	0.069
H 	H 	0.9291	0.3056	0.6202	0.067
H 	H 	0.0594	0.202	0.9	0.064
H 	H 	0.086	0.1465	0.965	0.069
H 	H 	0.0271	0.1162	0.0322	0.043
H 	H 	0.7854	0.2142	0.0307	0.06
H 	H 	0.7567	0.2691	0.9648	0.064
H 	H 	0.8069	0.2942	0.8958	0.04
H 	H 	0.0843	0.0503	0.1526	0.043
H 	H 	0.274	0.1007	0.1535	0.063
H 	H 	0.4625	0.0992	0.1512	0.043
H 	H 	0.4201	0.9359	0.1293	0.054
H 	H 	0.2297	0.887	0.1232	0.068
H 	H 	0.0416	0.8875	0.1288	0.039
H 	H 	0.3467	0.8895	0.7907	0.036
H 	H 	0.2951	0.8375	0.8178	0.042
H 	H 	0.1816	0.7623	0.7824	0.039
H 	H 	0.1584	0.765	0.7321	0.039
H 	H 	0.2366	0.8447	0.6905	0.04
H 	H 	0.3101	0.8942	0.7137	0.039
H 	H 	0.0189	0.8626	0.8121	0.029
H 	H 	0.098	0.8211	0.8304	0.037
H 	H 	0.2266	0.9526	0.7614	0.031
H 	H 	0.097	0.9424	0.7702	0.042
H 	H 	0.0425	0.8279	0.7046	0.041
H 	H 	0.9864	0.8671	0.7364	0.037
H 	H 	0.7266	0.6907	0.6566	0.036
H 	H 	0.6624	0.6446	0.6864	0.042
H 	H 	0.6903	0.6475	0.764	0.045
H 	H 	0.7708	0.6963	0.785	0.043
H 	H 	0.868	0.7675	0.7389	0.035
H 	H 	0.8509	0.7644	0.6881	0.034
H 	H 	0.8937	0.5816	0.7167	0.041
H 	H 	0.7636	0.5791	0.7233	0.033
H 	H 	0.9249	0.6953	0.6474	0.035
H 	H 	0.9913	0.6519	0.6709	0.034
H 	H 	0.9655	0.7015	0.7747	0.044
H 	H 	0.0155	0.6555	0.7474	0.04
H 	H 	0.4583	0.5779	0.7681	0.056
H 	H 	0.4374	0.4789	0.7884	0.062
H 	H 	0.3301	0.3951	0.7911	0.038
H 	H 	0.0654	0.4623	0.7476	0.058
H 	H 	0.0849	0.5612	0.7295	0.063
H 	H 	0.1927	0.6445	0.7243	0.038
H 	H 	0.737	0.7662	0.8588	0.039
H 	H 	0.7859	0.7879	0.9286	0.064
H 	H 	0.7369	0.8222	0.0007	0.062
H 	H 	0.4316	0.8647	0.0208	0.045
H 	H 	0.3815	0.8411	0.9512	0.069
H 	H 	0.4291	0.8056	0.8798	0.068
H 	H 	0.5594	0.702	0.6	0.062
H 	H 	0.586	0.6465	0.535	0.069
H 	H 	0.5271	0.6162	0.4678	0.043
H 	H 	0.2854	0.7142	0.4693	0.06
H 	H 	0.2567	0.7691	0.5352	0.064
H 	H 	0.3069	0.7942	0.6042	0.039
H 	H 	0.5843	0.5503	0.3474	0.043
H 	H 	0.774	0.6007	0.3465	0.063
H 	H 	0.9625	0.5992	0.3488	0.044
H 	H 	0.9201	0.4359	0.3707	0.054
H 	H 	0.7297	0.387	0.3768	0.068
H 	H 	0.5416	0.3875	0.3712	0.039
H 	H 	0.1533	0.6105	0.2907	0.036
H 	H 	0.2049	0.6625	0.3178	0.042
H 	H 	0.3184	0.7377	0.2824	0.039
H 	H 	0.3416	0.735	0.2321	0.039
H 	H 	0.2634	0.6553	0.1905	0.04
H 	H 	0.1899	0.6058	0.2137	0.039
H 	H 	0.4811	0.6374	0.3121	0.029
H 	H 	0.402	0.6789	0.3304	0.037
H 	H 	0.2734	0.5474	0.2614	0.031
H 	H 	0.403	0.5576	0.2702	0.042
H 	H 	0.4575	0.6721	0.2046	0.041
H 	H 	0.5136	0.6329	0.2364	0.038
H 	H 	0.7734	0.8093	0.1566	0.036
H 	H 	0.8376	0.8554	0.1864	0.042
H 	H 	0.8097	0.8525	0.264	0.045
H 	H 	0.7292	0.8037	0.285	0.043
H 	H 	0.632	0.7325	0.2389	0.035
H 	H 	0.6491	0.7356	0.1881	0.034
H 	H 	0.6063	0.9184	0.2167	0.042
H 	H 	0.7364	0.9209	0.2233	0.033
H 	H 	0.5751	0.8047	0.1474	0.035
H 	H 	0.5087	0.8481	0.1709	0.034
H 	H 	0.5345	0.7985	0.2747	0.043
H 	H 	0.4845	0.8445	0.2474	0.039
H 	H 	0.0417	0.9221	0.2681	0.056
H 	H 	0.0626	0.0211	0.2884	0.062
H 	H 	0.1699	0.1049	0.2911	0.038
H 	H 	0.4346	0.0377	0.2476	0.057
H 	H 	0.4151	0.9388	0.2295	0.063
H 	H 	0.3073	0.8555	0.2243	0.038
H 	H 	0.763	0.7338	0.3588	0.039
H 	H 	0.7141	0.7121	0.4286	0.064
H 	H 	0.7631	0.6778	0.5007	0.062
H 	H 	0.0684	0.6353	0.5208	0.045
H 	H 	0.1185	0.6589	0.4512	0.069
H 	H 	0.0709	0.6944	0.3798	0.067
H 	H 	0.9406	0.798	0.1	0.064
H 	H 	0.914	0.8535	0.035	0.069
H 	H 	0.9729	0.8838	0.9678	0.043
H 	H 	0.2146	0.7858	0.9693	0.06
H 	H 	0.2433	0.7309	0.0352	0.064
H 	H 	0.1931	0.7058	0.1042	0.04
H 	H 	0.9157	0.9497	0.8474	0.043
H 	H 	0.726	0.8993	0.8465	0.063
H 	H 	0.5375	0.9008	0.8488	0.043
H 	H 	0.5799	0.0641	0.8707	0.054
H 	H 	0.7703	0.113	0.8768	0.068
H 	H 	0.9584	0.1125	0.8712	0.039
C 	C 	0.71818	0.13835	0.2065	-0.037
C 	C 	0.83079	0.21293	0.24148	-0.018
C 	C 	0.75385	0.13404	0.28268	-0.021
C 	C 	0.91384	0.15456	0.19387	-0.017
C 	C 	0.8369	0.07592	0.23516	-0.015
C 	C 	0.94625	0.15038	0.26879	0
C 	C 	0.26778	0.3311	0.31708	-0.037
C 	C 	0.24058	0.32785	0.2403	-0.028
C 	C 	0.14465	0.25775	0.28567	-0.011
C 	C 	0.16765	0.39597	0.2809	-0.016
C 	C 	0.07136	0.32654	0.32623	-0.014
C 	C 	0.04727	0.32294	0.25039	-0.004
C 	C 	0.5955	0.32659	0.25769	0.368
C 	C 	0.66313	0.3812	0.25399	-0.08
C 	C 	0.61735	0.42578	0.23947	-0.03
C 	C 	0.68202	0.47755	0.23567	0.025
C 	C 	0.6372	0.52421	0.22052	-0.084
C 	C 	0.70108	0.57375	0.21863	0.014
C 	C 	0.81341	0.57901	0.23113	-0.081
C 	C 	0.85909	0.53417	0.2447	-0.031
C 	C 	0.79493	0.48228	0.24742	0.028
C 	C 	0.83984	0.43581	0.26248	-0.084
C 	C 	0.77591	0.38644	0.26566	0.014
C 	C 	0.88014	0.6345	0.23022	0.373
C 	C 	0.44996	0.22504	0.18388	0.371
C 	C 	0.42247	0.2151	0.13745	-0.082
C 	C 	0.31505	0.22095	0.12238	0.014
C 	C 	0.2862	0.20815	0.08106	-0.089
C 	C 	0.36277	0.18893	0.0523	0.031
C 	C 	0.33466	0.17394	0.00966	-0.052
C 	C 	0.4093	0.15391	0.98308	-0.054
C 	C 	0.51674	0.14867	0.99784	-0.006
C 	C 	0.54651	0.16287	0.03906	-0.079
C 	C 	0.47069	0.18342	0.0672	0.025
C 	C 	0.49871	0.19737	0.11018	-0.035
C 	C 	0.37481	0.13406	0.93917	0.278
C 	C 	0.5333	0.23706	0.34518	0.372
C 	C 	0.56209	0.25066	0.39098	-0.082
C 	C 	0.5027	0.28537	0.41311	-0.033
C 	C 	0.53306	0.3024	0.45513	0.023
C 	C 	0.47617	0.34033	0.47766	-0.082
C 	C 	0.51073	0.35803	0.51763	-0.002
C 	C 	0.60196	0.3383	0.53733	-0.058
C 	C 	0.6557	0.30023	0.51676	-0.051
C 	C 	0.62456	0.2821	0.47492	0.03
C 	C 	0.68293	0.24517	0.45176	-0.088
C 	C 	0.65293	0.23015	0.41094	0.016
C 	C 	0.64544	0.36102	0.57971	0.295
C 	C 	0.57546	0.53037	0.64564	0.387
C 	C 	0.45392	0.53028	0.64195	-0.104
C 	C 	0.38533	0.48254	0.64683	-0.018
C 	C 	0.26962	0.48147	0.64342	0.019
C 	C 	0.19712	0.43273	0.64894	-0.08
C 	C 	0.08567	0.43362	0.64777	0.017
C 	C 	0.04196	0.48358	0.64139	-0.092
C 	C 	0.11031	0.53121	0.63445	-0.036
C 	C 	0.22599	0.53127	0.63499	0.031
C 	C 	0.29906	0.57991	0.62936	-0.091
C 	C 	0.41035	0.57972	0.63268	0.027
C 	C 	0.92048	0.4848	0.64359	0.374
C 	C 	0.78182	0.36165	0.7065	-0.036
C 	C 	0.66921	0.28707	0.74148	-0.018
C 	C 	0.74615	0.36596	0.78268	-0.021
C 	C 	0.58616	0.34544	0.69387	-0.017
C 	C 	0.6631	0.42408	0.73516	-0.015
C 	C 	0.55375	0.34962	0.76879	-0.001
C 	C 	0.23222	0.1689	0.81708	-0.037
C 	C 	0.25942	0.17215	0.7403	-0.028
C 	C 	0.35535	0.24225	0.78567	-0.011
C 	C 	0.33235	0.10403	0.7809	-0.016
C 	C 	0.42864	0.17346	0.82623	-0.014
C 	C 	0.45273	0.17706	0.75039	-0.003
C 	C 	0.9045	0.17341	0.75769	0.366
C 	C 	0.83687	0.1188	0.75399	-0.079
C 	C 	0.88265	0.07422	0.73947	-0.03
C 	C 	0.81798	0.02245	0.73567	0.025
C 	C 	0.8628	0.97579	0.72052	-0.084
C 	C 	0.79892	0.92625	0.71863	0.014
C 	C 	0.68659	0.92099	0.73113	-0.081
C 	C 	0.64091	0.96583	0.7447	-0.031
C 	C 	0.70507	0.01772	0.74742	0.027
C 	C 	0.66016	0.06419	0.76248	-0.083
C 	C 	0.72409	0.11356	0.76566	0.014
C 	C 	0.61986	0.8655	0.73022	0.373
C 	C 	0.05004	0.27496	0.68388	0.373
C 	C 	0.07753	0.2849	0.63745	-0.083
C 	C 	0.18495	0.27905	0.62238	0.015
C 	C 	0.2138	0.29185	0.58106	-0.089
C 	C 	0.13723	0.31107	0.5523	0.031
C 	C 	0.16534	0.32606	0.50966	-0.052
C 	C 	0.0907	0.34609	0.48308	-0.055
C 	C 	0.98326	0.35133	0.49784	-0.005
C 	C 	0.95349	0.33713	0.53906	-0.08
C 	C 	0.02931	0.31658	0.5672	0.025
C 	C 	0.00129	0.30263	0.61018	-0.034
C 	C 	0.12519	0.36594	0.43917	0.278
C 	C 	0.9667	0.26294	0.84518	0.37
C 	C 	0.93791	0.24934	0.89098	-0.081
C 	C 	0.9973	0.21463	0.91311	-0.036
C 	C 	0.96694	0.1976	0.95513	0.023
C 	C 	0.02383	0.15967	0.97766	-0.082
C 	C 	0.98927	0.14197	0.01763	-0.002
C 	C 	0.89804	0.1617	0.03733	-0.059
C 	C 	0.8443	0.19977	0.01676	-0.051
C 	C 	0.87544	0.2179	0.97492	0.029
C 	C 	0.81707	0.25483	0.95176	-0.087
C 	C 	0.84707	0.26985	0.91094	0.015
C 	C 	0.85456	0.13898	0.07971	0.296
C 	C 	0.92454	0.96963	0.14564	0.388
C 	C 	0.04608	0.96972	0.14195	-0.105
C 	C 	0.11467	0.01746	0.14683	-0.018
C 	C 	0.23038	0.01853	0.14342	0.018
C 	C 	0.30288	0.06727	0.14894	-0.08
C 	C 	0.41433	0.06638	0.14777	0.017
C 	C 	0.45804	0.01642	0.14139	-0.093
C 	C 	0.38969	0.96879	0.13445	-0.036
C 	C 	0.27401	0.96873	0.13499	0.031
C 	C 	0.20094	0.92009	0.12936	-0.092
C 	C 	0.08965	0.92028	0.13268	0.028
C 	C 	0.57952	0.0152	0.14359	0.375
C 	C 	0.28182	0.86165	0.7935	-0.037
C 	C 	0.16921	0.78707	0.75852	-0.018
C 	C 	0.24615	0.86596	0.71732	-0.021
C 	C 	0.08616	0.84544	0.80613	-0.017
C 	C 	0.1631	0.92408	0.76484	-0.015
C 	C 	0.05375	0.84962	0.73121	0
C 	C 	0.73222	0.6689	0.68292	-0.037
C 	C 	0.75942	0.67215	0.7597	-0.028
C 	C 	0.85535	0.74225	0.71433	-0.011
C 	C 	0.83235	0.60403	0.7191	-0.016
C 	C 	0.92864	0.67346	0.67377	-0.014
C 	C 	0.95273	0.67706	0.74961	-0.004
C 	C 	0.4045	0.67341	0.74231	0.368
C 	C 	0.33687	0.6188	0.74601	-0.08
C 	C 	0.38265	0.57422	0.76053	-0.03
C 	C 	0.31798	0.52245	0.76433	0.025
C 	C 	0.3628	0.47579	0.77948	-0.084
C 	C 	0.29892	0.42625	0.78137	0.014
C 	C 	0.18659	0.42099	0.76887	-0.081
C 	C 	0.14091	0.46583	0.7553	-0.031
C 	C 	0.20507	0.51772	0.75258	0.028
C 	C 	0.16016	0.56419	0.73752	-0.084
C 	C 	0.22409	0.61356	0.73434	0.014
C 	C 	0.11986	0.3655	0.76978	0.373
C 	C 	0.55004	0.77496	0.81612	0.371
C 	C 	0.57753	0.7849	0.86255	-0.082
C 	C 	0.68495	0.77905	0.87762	0.014
C 	C 	0.7138	0.79185	0.91894	-0.089
C 	C 	0.63723	0.81107	0.9477	0.031
C 	C 	0.66534	0.82606	0.99034	-0.052
C 	C 	0.5907	0.84609	0.01692	-0.054
C 	C 	0.48326	0.85133	0.00216	-0.006
C 	C 	0.45349	0.83713	0.96094	-0.079
C 	C 	0.52931	0.81658	0.9328	0.025
C 	C 	0.50129	0.80263	0.88982	-0.035
C 	C 	0.62519	0.86594	0.06083	0.278
C 	C 	0.4667	0.76294	0.65482	0.372
C 	C 	0.43791	0.74934	0.60902	-0.082
C 	C 	0.4973	0.71463	0.58689	-0.033
C 	C 	0.46694	0.6976	0.54487	0.023
C 	C 	0.52383	0.65967	0.52234	-0.082
C 	C 	0.48927	0.64197	0.48237	-0.002
C 	C 	0.39804	0.6617	0.46267	-0.058
C 	C 	0.3443	0.69977	0.48324	-0.051
C 	C 	0.37544	0.7179	0.52508	0.03
C 	C 	0.31707	0.75483	0.54824	-0.088
C 	C 	0.34707	0.76985	0.58906	0.016
C 	C 	0.35456	0.63898	0.42029	0.295
C 	C 	0.42454	0.46963	0.35436	0.387
C 	C 	0.54608	0.46972	0.35805	-0.104
C 	C 	0.61467	0.51746	0.35317	-0.018
C 	C 	0.73038	0.51853	0.35658	0.019
C 	C 	0.80288	0.56727	0.35106	-0.08
C 	C 	0.91433	0.56638	0.35223	0.017
C 	C 	0.95804	0.51642	0.35861	-0.092
C 	C 	0.88969	0.46879	0.36555	-0.036
C 	C 	0.77401	0.46873	0.36501	0.031
C 	C 	0.70094	0.42009	0.37064	-0.091
C 	C 	0.58965	0.42028	0.36732	0.027
C 	C 	0.07952	0.5152	0.35641	0.374
C 	C 	0.21818	0.63835	0.2935	-0.036
C 	C 	0.33079	0.71293	0.25852	-0.018
C 	C 	0.25385	0.63404	0.21732	-0.021
C 	C 	0.41384	0.65456	0.30613	-0.017
C 	C 	0.3369	0.57592	0.26484	-0.015
C 	C 	0.44625	0.65038	0.23121	-0.001
C 	C 	0.76778	0.8311	0.18292	-0.037
C 	C 	0.74058	0.82785	0.2597	-0.028
C 	C 	0.64465	0.75775	0.21433	-0.011
C 	C 	0.66765	0.89597	0.2191	-0.016
C 	C 	0.57136	0.82654	0.17377	-0.014
C 	C 	0.54727	0.82294	0.24961	-0.003
C 	C 	0.0955	0.82659	0.24231	0.366
C 	C 	0.16313	0.8812	0.24601	-0.079
C 	C 	0.11735	0.92578	0.26053	-0.03
C 	C 	0.18202	0.97755	0.26433	0.025
C 	C 	0.1372	0.02421	0.27948	-0.084
C 	C 	0.20108	0.07375	0.28137	0.014
C 	C 	0.31341	0.07901	0.26887	-0.081
C 	C 	0.35909	0.03417	0.2553	-0.031
C 	C 	0.29493	0.98228	0.25258	0.027
C 	C 	0.33984	0.93581	0.23752	-0.083
C 	C 	0.27591	0.88644	0.23434	0.014
C 	C 	0.38014	0.1345	0.26978	0.373
C 	C 	0.94996	0.72504	0.31612	0.373
C 	C 	0.92247	0.7151	0.36255	-0.083
C 	C 	0.81505	0.72095	0.37762	0.015
C 	C 	0.7862	0.70815	0.41894	-0.089
C 	C 	0.86277	0.68893	0.4477	0.031
C 	C 	0.83466	0.67394	0.49034	-0.052
C 	C 	0.9093	0.65391	0.51692	-0.055
C 	C 	0.01674	0.64867	0.50216	-0.005
C 	C 	0.04651	0.66287	0.46094	-0.08
C 	C 	0.97069	0.68342	0.4328	0.025
C 	C 	0.99871	0.69737	0.38982	-0.034
C 	C 	0.87481	0.63406	0.56083	0.278
C 	C 	0.0333	0.73706	0.15482	0.37
C 	C 	0.06209	0.75066	0.10902	-0.081
C 	C 	0.0027	0.78537	0.08689	-0.036
C 	C 	0.03306	0.8024	0.04487	0.023
C 	C 	0.97617	0.84033	0.02234	-0.082
C 	C 	0.01073	0.85803	0.98237	-0.002
C 	C 	0.10196	0.8383	0.96267	-0.059
C 	C 	0.1557	0.80023	0.98324	-0.051
C 	C 	0.12456	0.7821	0.02508	0.029
C 	C 	0.18293	0.74517	0.04824	-0.087
C 	C 	0.15293	0.73015	0.08906	0.015
C 	C 	0.14544	0.86102	0.92029	0.296
C 	C 	0.07546	0.03037	0.85436	0.388
C 	C 	0.95392	0.03028	0.85805	-0.105
C 	C 	0.88533	0.98254	0.85317	-0.018
C 	C 	0.76962	0.98147	0.85658	0.018
C 	C 	0.69712	0.93273	0.85106	-0.08
C 	C 	0.58567	0.93362	0.85223	0.017
C 	C 	0.54196	0.98358	0.85861	-0.093
C 	C 	0.61031	0.03121	0.86555	-0.036
C 	C 	0.72599	0.03127	0.86501	0.031
C 	C 	0.79906	0.07991	0.87064	-0.092
C 	C 	0.91035	0.07972	0.86732	0.028
C 	C 	0.42048	0.9848	0.85641	0.375
N 	N 	0.73164	0.17118	0.24657	-0.199
N 	N 	0.81726	0.11098	0.1974	-0.194
N 	N 	0.85231	0.1077	0.27469	-0.095
N 	N 	0.92967	0.18687	0.23295	-0.095
N 	N 	0.25127	0.29377	0.27953	-0.201
N 	N 	0.17572	0.36462	0.32164	-0.188
N 	N 	0.14936	0.36012	0.24385	-0.093
N 	N 	0.05232	0.28976	0.28943	-0.096
N 	N 	0.76836	0.32882	0.74657	-0.199
N 	N 	0.68274	0.38902	0.6974	-0.195
N 	N 	0.64769	0.3923	0.77469	-0.095
N 	N 	0.57033	0.31313	0.73295	-0.095
N 	N 	0.24873	0.20623	0.77953	-0.201
N 	N 	0.32428	0.13538	0.82164	-0.188
N 	N 	0.35064	0.13988	0.74385	-0.093
N 	N 	0.44768	0.21024	0.78943	-0.096
N 	N 	0.26836	0.82882	0.75343	-0.199
N 	N 	0.18274	0.88902	0.8026	-0.194
N 	N 	0.14769	0.8923	0.72531	-0.095
N 	N 	0.07033	0.81313	0.76705	-0.095
N 	N 	0.74873	0.70623	0.72047	-0.201
N 	N 	0.82428	0.63538	0.67836	-0.188
N 	N 	0.85064	0.63988	0.75615	-0.093
N 	N 	0.94768	0.71024	0.71057	-0.096
N 	N 	0.23164	0.67118	0.25343	-0.199
N 	N 	0.31726	0.61098	0.3026	-0.195
N 	N 	0.35231	0.6077	0.22531	-0.095
N 	N 	0.42967	0.68687	0.26705	-0.095
N 	N 	0.75127	0.79377	0.22047	-0.201
N 	N 	0.67572	0.86462	0.17836	-0.188
N 	N 	0.64936	0.86012	0.25615	-0.093
N 	N 	0.55232	0.78976	0.21057	-0.096
O 	O 	0.49204	0.32403	0.25622	-0.445
O 	O 	0.64917	0.28632	0.26221	-0.462
O 	O 	0.9804	0.63765	0.24066	-0.462
O 	O 	0.83007	0.67381	0.21957	-0.461
O 	O 	0.37379	0.23855	0.20722	-0.461
O 	O 	0.54484	0.21808	0.19639	-0.454
O 	O 	0.43999	0.11171	0.91619	-0.389
O 	O 	0.2777	0.13756	0.92671	-0.396
O 	O 	0.4533	0.25823	0.32983	-0.471
O 	O 	0.59153	0.20685	0.32494	-0.449
O 	O 	0.7185	0.34044	0.59909	-0.322
O 	O 	0.605	0.40329	0.59321	-0.454
O 	O 	0.63425	0.57274	0.63348	-0.481
O 	O 	0.61167	0.48867	0.66093	-0.505
O 	O 	0.86095	0.44016	0.63676	-0.492
O 	O 	0.88522	0.52865	0.65378	-0.505
O 	O 	0.00796	0.17597	0.75622	-0.444
O 	O 	0.85083	0.21368	0.76221	-0.462
O 	O 	0.5196	0.86235	0.74066	-0.462
O 	O 	0.66993	0.82619	0.71957	-0.461
O 	O 	0.12621	0.26145	0.70722	-0.461
O 	O 	0.95516	0.28192	0.69639	-0.455
O 	O 	0.06001	0.38829	0.41619	-0.389
O 	O 	0.2223	0.36244	0.42671	-0.396
O 	O 	0.0467	0.24177	0.82983	-0.47
O 	O 	0.90847	0.29315	0.82494	-0.448
O 	O 	0.7815	0.15956	0.09909	-0.322
O 	O 	0.895	0.09671	0.09321	-0.454
O 	O 	0.86575	0.92726	0.13348	-0.481
O 	O 	0.88833	0.01133	0.16093	-0.505
O 	O 	0.63905	0.05984	0.13676	-0.492
O 	O 	0.61478	0.97135	0.15378	-0.505
O 	O 	0.50796	0.67597	0.74378	-0.445
O 	O 	0.35083	0.71368	0.73779	-0.462
O 	O 	0.0196	0.36235	0.75934	-0.462
O 	O 	0.16993	0.32619	0.78043	-0.461
O 	O 	0.62621	0.76145	0.79278	-0.461
O 	O 	0.45516	0.78192	0.80361	-0.454
O 	O 	0.56001	0.88829	0.08381	-0.389
O 	O 	0.7223	0.86244	0.07329	-0.396
O 	O 	0.5467	0.74177	0.67017	-0.471
O 	O 	0.40847	0.79315	0.67506	-0.449
O 	O 	0.2815	0.65956	0.40091	-0.322
O 	O 	0.395	0.59671	0.40679	-0.454
O 	O 	0.36575	0.42726	0.36652	-0.481
O 	O 	0.38833	0.51133	0.33907	-0.505
O 	O 	0.13905	0.55984	0.36324	-0.492
O 	O 	0.11478	0.47135	0.34622	-0.505
O 	O 	0.99204	0.82403	0.24378	-0.444
O 	O 	0.14917	0.78632	0.23779	-0.462
O 	O 	0.4804	0.13765	0.25934	-0.462
O 	O 	0.33007	0.17381	0.28043	-0.461
O 	O 	0.87379	0.73855	0.29278	-0.461
O 	O 	0.04484	0.71808	0.30361	-0.455
O 	O 	0.93999	0.61171	0.58381	-0.389
O 	O 	0.7777	0.63756	0.57329	-0.396
O 	O 	0.9533	0.75823	0.17017	-0.47
O 	O 	0.09153	0.70685	0.17506	-0.448
O 	O 	0.2185	0.84044	0.90091	-0.322
O 	O 	0.105	0.90329	0.90679	-0.454
O 	O 	0.13425	0.07274	0.86652	-0.481
O 	O 	0.11167	0.98867	0.83907	-0.505
O 	O 	0.36095	0.94016	0.86324	-0.492
O 	O 	0.38522	0.02865	0.84622	-0.505
_end
