data_functionalizedCrystal
_audit_creation_method	'EQeq! by Chris Wilmer'
_symmetry_space_group_name_H-M	'P1'
_symmetry_Int_Tables_number	1
_symmetry_cell_setting	triclinic
loop_
_symmetry_equiv_pos_as_xyz
  x,y,z
_cell_length_a	15.9344
_cell_length_b	17.9914
_cell_length_c	17.9914
_cell_angle_alpha	90
_cell_angle_beta	90
_cell_angle_gamma	90
loop_
_atom_site_label
_atom_site_type_symbol
_atom_site_fract_x
_atom_site_fract_y
_atom_site_fract_z
_atom_site_charge
Cu	Cu	0.5	0.23186	0.25704	0.711
Cu	Cu	0.5	0.76814	0.74296	0.711
Cu	Cu	0.5	0.74296	0.23186	0.711
Cu	Cu	0.5	0.25704	0.76814	0.711
Cu	Cu	-6.25319e-33	0.76814	0.25704	0.716
Cu	Cu	1.29337e-32	0.23186	0.74296	0.716
Cu	Cu	-1.46556e-33	0.25704	0.23186	0.716
Cu	Cu	3.25186e-33	0.74296	0.76814	0.716
Cu	Cu	0.41613	0.21989	0.3836	0.722
Cu	Cu	0.41613	0.78011	0.6164	0.722
Cu	Cu	0.41613	0.6164	0.21989	0.722
Cu	Cu	0.41613	0.3836	0.78011	0.722
Cu	Cu	0.08387	0.78011	0.3836	0.723
Cu	Cu	0.08387	0.21989	0.6164	0.723
Cu	Cu	0.08387	0.3836	0.21989	0.723
Cu	Cu	0.08387	0.6164	0.78011	0.723
Cu	Cu	0.58387	0.78011	0.6164	0.722
Cu	Cu	0.58387	0.21989	0.3836	0.722
Cu	Cu	0.58387	0.3836	0.78011	0.722
Cu	Cu	0.58387	0.6164	0.21989	0.722
Cu	Cu	0.91613	0.21989	0.6164	0.714
Cu	Cu	0.91613	0.78011	0.3836	0.714
Cu	Cu	0.91613	0.6164	0.78011	0.714
Cu	Cu	0.91613	0.3836	0.21989	0.714
Cu	Cu	0.5	0.32211	0.89438	0.718
Cu	Cu	0.5	0.67789	0.10562	0.718
Cu	Cu	0.5	0.10562	0.32211	0.718
Cu	Cu	0.5	0.89438	0.67789	0.718
Cu	Cu	-6.00219e-33	0.67789	0.89438	0.723
Cu	Cu	6.56493e-33	0.32211	0.10562	0.723
Cu	Cu	-3.53061e-33	0.89438	0.32211	0.723
Cu	Cu	2.86979e-33	0.10562	0.67789	0.723
H 	H 	0.4245	0.3523	0.1566	0.04
H 	H 	0.4245	0.6477	0.8434	0.04
H 	H 	0.4245	0.8434	0.3523	0.04
H 	H 	0.4245	0.1566	0.6477	0.04
H 	H 	0.0755	0.6477	0.1566	0.041
H 	H 	0.0755	0.3523	0.8434	0.041
H 	H 	0.0755	0.1566	0.3523	0.041
H 	H 	0.0755	0.8434	0.6477	0.041
H 	H 	0.5755	0.6477	0.8434	0.04
H 	H 	0.5755	0.3523	0.1566	0.04
H 	H 	0.5755	0.1566	0.6477	0.04
H 	H 	0.5755	0.8434	0.3523	0.04
H 	H 	0.9245	0.3523	0.8434	0.038
H 	H 	0.9245	0.6477	0.1566	0.038
H 	H 	0.9245	0.8434	0.6477	0.038
H 	H 	0.9245	0.1566	0.3523	0.038
H 	H 	0.3746	0.2791	0.139	0.05
H 	H 	0.3746	0.7209	0.861	0.05
H 	H 	0.3746	0.861	0.2791	0.05
H 	H 	0.3746	0.139	0.7209	0.05
H 	H 	0.1254	0.7209	0.139	0.049
H 	H 	0.1254	0.2791	0.861	0.049
H 	H 	0.1254	0.139	0.2791	0.049
H 	H 	0.1254	0.861	0.7209	0.049
H 	H 	0.6254	0.7209	0.861	0.05
H 	H 	0.6254	0.2791	0.139	0.05
H 	H 	0.6254	0.139	0.7209	0.05
H 	H 	0.6254	0.861	0.2791	0.05
H 	H 	0.8746	0.2791	0.861	0.052
H 	H 	0.8746	0.7209	0.139	0.052
H 	H 	0.8746	0.861	0.7209	0.052
H 	H 	0.8746	0.139	0.2791	0.052
H 	H 	0.4507	0.1644	0.1109	0.042
H 	H 	0.4507	0.8356	0.8891	0.042
H 	H 	0.4507	0.8891	0.1644	0.042
H 	H 	0.4507	0.1109	0.8356	0.042
H 	H 	0.0493	0.8356	0.1109	0.037
H 	H 	0.0493	0.1644	0.8891	0.037
H 	H 	0.0493	0.1109	0.1644	0.037
H 	H 	0.0493	0.8891	0.8356	0.037
H 	H 	0.5493	0.8356	0.8891	0.042
H 	H 	0.5493	0.1644	0.1109	0.042
H 	H 	0.5493	0.1109	0.8356	0.042
H 	H 	0.5493	0.8891	0.1644	0.042
H 	H 	0.9507	0.1644	0.8891	0.024
H 	H 	0.9507	0.8356	0.1109	0.024
H 	H 	0.9507	0.8891	0.8356	0.024
H 	H 	0.9507	0.1109	0.1644	0.024
H 	H 	0.5493	0.194	0.9925	0.039
H 	H 	0.5493	0.806	0.0075	0.039
H 	H 	0.5493	0.0075	0.194	0.039
H 	H 	0.5493	0.9925	0.806	0.039
H 	H 	0.9507	0.806	0.9925	0.021
H 	H 	0.9507	0.194	0.0075	0.021
H 	H 	0.9507	0.9925	0.194	0.021
H 	H 	0.9507	0.0075	0.806	0.021
H 	H 	0.4507	0.806	0.0075	0.039
H 	H 	0.4507	0.194	0.9925	0.039
H 	H 	0.4507	0.9925	0.806	0.039
H 	H 	0.4507	0.0075	0.194	0.039
H 	H 	0.0493	0.194	0.0075	0.034
H 	H 	0.0493	0.806	0.9925	0.034
H 	H 	0.0493	0.0075	0.806	0.034
H 	H 	0.0493	0.9925	0.194	0.034
H 	H 	0.3743	0.3074	0.0207	0.048
H 	H 	0.3743	0.6926	0.9793	0.048
H 	H 	0.3743	0.9793	0.3074	0.048
H 	H 	0.3743	0.0207	0.6926	0.048
H 	H 	0.1257	0.6926	0.0207	0.047
H 	H 	0.1257	0.3074	0.9793	0.047
H 	H 	0.1257	0.0207	0.3074	0.047
H 	H 	0.1257	0.9793	0.6926	0.047
H 	H 	0.6257	0.6926	0.9793	0.048
H 	H 	0.6257	0.3074	0.0207	0.048
H 	H 	0.6257	0.0207	0.6926	0.048
H 	H 	0.6257	0.9793	0.3074	0.048
H 	H 	0.8743	0.3074	0.9793	0.05
H 	H 	0.8743	0.6926	0.0207	0.05
H 	H 	0.8743	0.9793	0.6926	0.05
H 	H 	0.8743	0.0207	0.3074	0.05
H 	H 	0.4234	0.381	0.0384	0.054
H 	H 	0.4234	0.619	0.9616	0.054
H 	H 	0.4234	0.9616	0.381	0.054
H 	H 	0.4234	0.0384	0.619	0.054
H 	H 	0.0766	0.619	0.0384	0.055
H 	H 	0.0766	0.381	0.9616	0.055
H 	H 	0.0766	0.0384	0.381	0.055
H 	H 	0.0766	0.9616	0.619	0.055
H 	H 	0.5766	0.619	0.9616	0.054
H 	H 	0.5766	0.381	0.0384	0.054
H 	H 	0.5766	0.0384	0.619	0.054
H 	H 	0.5766	0.9616	0.381	0.054
H 	H 	0.9234	0.381	0.9616	0.051
H 	H 	0.9234	0.619	0.0384	0.051
H 	H 	0.9234	0.9616	0.619	0.051
H 	H 	0.9234	0.0384	0.381	0.051
H 	H 	0.3247	0.1204	0.4736	0.034
H 	H 	0.3247	0.8796	0.5264	0.034
H 	H 	0.3247	0.5264	0.1204	0.034
H 	H 	0.3247	0.4736	0.8796	0.034
H 	H 	0.1753	0.8796	0.4736	0.033
H 	H 	0.1753	0.1204	0.5264	0.033
H 	H 	0.1753	0.4736	0.1204	0.033
H 	H 	0.1753	0.5264	0.8796	0.033
H 	H 	0.6753	0.8796	0.5264	0.034
H 	H 	0.6753	0.1204	0.4736	0.034
H 	H 	0.6753	0.4736	0.8796	0.034
H 	H 	0.6753	0.5264	0.1204	0.034
H 	H 	0.8247	0.1204	0.5264	0.03
H 	H 	0.8247	0.8796	0.4736	0.03
H 	H 	0.8247	0.5264	0.8796	0.03
H 	H 	0.8247	0.4736	0.1204	0.03
H 	H 	0.2472	0.1384	0.4227	0.047
H 	H 	0.2472	0.8616	0.5773	0.047
H 	H 	0.2472	0.5773	0.1384	0.047
H 	H 	0.2472	0.4227	0.8616	0.047
H 	H 	0.2528	0.8616	0.4227	0.047
H 	H 	0.2528	0.1384	0.5773	0.047
H 	H 	0.2528	0.4227	0.1384	0.047
H 	H 	0.2528	0.5773	0.8616	0.047
H 	H 	0.7528	0.8616	0.5773	0.047
H 	H 	0.7528	0.1384	0.4227	0.047
H 	H 	0.7528	0.4227	0.8616	0.047
H 	H 	0.7528	0.5773	0.1384	0.047
H 	H 	0.7472	0.1384	0.5773	0.046
H 	H 	0.7472	0.8616	0.4227	0.046
H 	H 	0.7472	0.5773	0.8616	0.046
H 	H 	0.7472	0.4227	0.1384	0.046
H 	H 	0.3647	0.3114	0.5179	0.049
H 	H 	0.3647	0.6886	0.4821	0.049
H 	H 	0.3647	0.4821	0.3114	0.049
H 	H 	0.3647	0.5179	0.6886	0.049
H 	H 	0.1353	0.6886	0.5179	0.049
H 	H 	0.1353	0.3114	0.4821	0.049
H 	H 	0.1353	0.5179	0.3114	0.049
H 	H 	0.1353	0.4821	0.6886	0.049
H 	H 	0.6353	0.6886	0.4821	0.049
H 	H 	0.6353	0.3114	0.5179	0.049
H 	H 	0.6353	0.5179	0.6886	0.049
H 	H 	0.6353	0.4821	0.3114	0.049
H 	H 	0.8647	0.3114	0.4821	0.042
H 	H 	0.8647	0.6886	0.5179	0.042
H 	H 	0.8647	0.4821	0.6886	0.042
H 	H 	0.8647	0.5179	0.3114	0.042
H 	H 	0.3761	0.2312	0.5508	0.047
H 	H 	0.3761	0.7688	0.4492	0.047
H 	H 	0.3761	0.4492	0.2312	0.047
H 	H 	0.3761	0.5508	0.7688	0.047
H 	H 	0.1239	0.7688	0.5508	0.048
H 	H 	0.1239	0.2312	0.4492	0.048
H 	H 	0.1239	0.5508	0.2312	0.048
H 	H 	0.1239	0.4492	0.7688	0.048
H 	H 	0.6239	0.7688	0.4492	0.047
H 	H 	0.6239	0.2312	0.5508	0.047
H 	H 	0.6239	0.5508	0.7688	0.047
H 	H 	0.6239	0.4492	0.2312	0.047
H 	H 	0.8761	0.2312	0.4492	0.041
H 	H 	0.8761	0.7688	0.5508	0.041
H 	H 	0.8761	0.4492	0.7688	0.041
H 	H 	0.8761	0.5508	0.2312	0.041
H 	H 	0.2284	0.2611	0.3737	0.021
H 	H 	0.2284	0.7389	0.6263	0.021
H 	H 	0.2284	0.6263	0.2611	0.021
H 	H 	0.2284	0.3737	0.7389	0.021
H 	H 	0.2716	0.7389	0.3737	0.021
H 	H 	0.2716	0.2611	0.6263	0.021
H 	H 	0.2716	0.3737	0.2611	0.021
H 	H 	0.2716	0.6263	0.7389	0.021
H 	H 	0.7716	0.7389	0.6263	0.021
H 	H 	0.7716	0.2611	0.3737	0.021
H 	H 	0.7716	0.3737	0.7389	0.021
H 	H 	0.7716	0.6263	0.2611	0.021
H 	H 	0.7284	0.2611	0.6263	0.021
H 	H 	0.7284	0.7389	0.3737	0.021
H 	H 	0.7284	0.6263	0.7389	0.021
H 	H 	0.7284	0.3737	0.2611	0.021
H 	H 	0.2564	0.3281	0.4239	0.033
H 	H 	0.2564	0.6719	0.5761	0.033
H 	H 	0.2564	0.5761	0.3281	0.033
H 	H 	0.2564	0.4239	0.6719	0.033
H 	H 	0.2436	0.6719	0.4239	0.033
H 	H 	0.2436	0.3281	0.5761	0.033
H 	H 	0.2436	0.4239	0.3281	0.033
H 	H 	0.2436	0.5761	0.6719	0.033
H 	H 	0.7436	0.6719	0.5761	0.033
H 	H 	0.7436	0.3281	0.4239	0.033
H 	H 	0.7436	0.4239	0.6719	0.033
H 	H 	0.7436	0.5761	0.3281	0.033
H 	H 	0.7564	0.3281	0.5761	0.031
H 	H 	0.7564	0.6719	0.4239	0.031
H 	H 	0.7564	0.5761	0.6719	0.031
H 	H 	0.7564	0.4239	0.3281	0.031
C 	C 	0.4248	0.3071	0.1272	-0.064
C 	C 	0.4248	0.6929	0.8728	-0.064
C 	C 	0.4248	0.8728	0.3071	-0.064
C 	C 	0.4248	0.1272	0.6929	-0.064
C 	C 	0.0752	0.6929	0.1272	-0.063
C 	C 	0.0752	0.3071	0.8728	-0.063
C 	C 	0.0752	0.1272	0.3071	-0.063
C 	C 	0.0752	0.8728	0.6929	-0.063
C 	C 	0.5752	0.6929	0.8728	-0.064
C 	C 	0.5752	0.3071	0.1272	-0.064
C 	C 	0.5752	0.1272	0.6929	-0.064
C 	C 	0.5752	0.8728	0.3071	-0.064
C 	C 	0.9248	0.3071	0.8728	-0.077
C 	C 	0.9248	0.6929	0.1272	-0.077
C 	C 	0.9248	0.8728	0.6929	-0.077
C 	C 	0.9248	0.1272	0.3071	-0.077
C 	C 	0.5	0.194	0.0996	-0.072
C 	C 	0.5	0.806	0.9004	-0.072
C 	C 	0.5	0.9004	0.194	-0.072
C 	C 	0.5	0.0996	0.806	-0.072
C 	C 	7.763e-33	0.806	0.0996	-0.046
C 	C 	1.36002e-32	0.194	0.9004	-0.046
C 	C 	8.21283e-34	0.0996	0.194	-0.046
C 	C 	3.27775e-32	0.9004	0.806	-0.046
C 	C 	0.5	0.215	0.0162	-0.063
C 	C 	0.5	0.785	0.9838	-0.063
C 	C 	0.5	0.9838	0.215	-0.063
C 	C 	0.5	0.0162	0.785	-0.063
C 	C 	4.65693e-33	0.785	0.0162	-0.037
C 	C 	4.16483e-33	0.215	0.9838	-0.037
C 	C 	9.10184e-34	0.0162	0.215	-0.037
C 	C 	2.29002e-32	0.9838	0.785	-0.037
C 	C 	0.4244	0.3274	0.0439	-0.073
C 	C 	0.4244	0.6726	0.9561	-0.073
C 	C 	0.4244	0.9561	0.3274	-0.073
C 	C 	0.4244	0.0439	0.6726	-0.073
C 	C 	0.0756	0.6726	0.0439	-0.072
C 	C 	0.0756	0.3274	0.9561	-0.072
C 	C 	0.0756	0.0439	0.3274	-0.072
C 	C 	0.0756	0.9561	0.6726	-0.072
C 	C 	0.5756	0.6726	0.9561	-0.073
C 	C 	0.5756	0.3274	0.0439	-0.073
C 	C 	0.5756	0.0439	0.6726	-0.073
C 	C 	0.5756	0.9561	0.3274	-0.073
C 	C 	0.9244	0.3274	0.9561	-0.085
C 	C 	0.9244	0.6726	0.0439	-0.085
C 	C 	0.9244	0.9561	0.6726	-0.085
C 	C 	0.9244	0.0439	0.3274	-0.085
C 	C 	0.2786	0.1547	0.4659	-0.072
C 	C 	0.2786	0.8453	0.5341	-0.072
C 	C 	0.2786	0.5341	0.1547	-0.072
C 	C 	0.2786	0.4659	0.8453	-0.072
C 	C 	0.2214	0.8453	0.4659	-0.071
C 	C 	0.2214	0.1547	0.5341	-0.071
C 	C 	0.2214	0.4659	0.1547	-0.071
C 	C 	0.2214	0.5341	0.8453	-0.071
C 	C 	0.7214	0.8453	0.5341	-0.073
C 	C 	0.7214	0.1547	0.4659	-0.073
C 	C 	0.7214	0.4659	0.8453	-0.073
C 	C 	0.7214	0.5341	0.1547	-0.073
C 	C 	0.7786	0.1547	0.5341	-0.07
C 	C 	0.7786	0.8453	0.4659	-0.07
C 	C 	0.7786	0.5341	0.8453	-0.07
C 	C 	0.7786	0.4659	0.1547	-0.07
C 	C 	0.3369	0.2641	0.5259	-0.086
C 	C 	0.3369	0.7359	0.4741	-0.086
C 	C 	0.3369	0.4741	0.2641	-0.086
C 	C 	0.3369	0.5259	0.7359	-0.086
C 	C 	0.1631	0.7359	0.5259	-0.086
C 	C 	0.1631	0.2641	0.4741	-0.086
C 	C 	0.1631	0.5259	0.2641	-0.086
C 	C 	0.1631	0.4741	0.7359	-0.086
C 	C 	0.6631	0.7359	0.4741	-0.087
C 	C 	0.6631	0.2641	0.5259	-0.087
C 	C 	0.6631	0.5259	0.7359	-0.087
C 	C 	0.6631	0.4741	0.2641	-0.087
C 	C 	0.8369	0.2641	0.4741	-0.082
C 	C 	0.8369	0.7359	0.5259	-0.082
C 	C 	0.8369	0.4741	0.7359	-0.082
C 	C 	0.8369	0.5259	0.2641	-0.082
C 	C 	0.2412	0.2759	0.4242	-0.043
C 	C 	0.2412	0.7241	0.5758	-0.043
C 	C 	0.2412	0.5758	0.2759	-0.043
C 	C 	0.2412	0.4242	0.7241	-0.043
C 	C 	0.2588	0.7241	0.4242	-0.043
C 	C 	0.2588	0.2759	0.5758	-0.043
C 	C 	0.2588	0.4242	0.2759	-0.043
C 	C 	0.2588	0.5758	0.7241	-0.043
C 	C 	0.7588	0.7241	0.5758	-0.046
C 	C 	0.7588	0.2759	0.4242	-0.046
C 	C 	0.7588	0.4242	0.7241	-0.046
C 	C 	0.7588	0.5758	0.2759	-0.046
C 	C 	0.7412	0.2759	0.5758	-0.042
C 	C 	0.7412	0.7241	0.4242	-0.042
C 	C 	0.7412	0.5758	0.7241	-0.042
C 	C 	0.7412	0.4242	0.2759	-0.042
I 	I 	0.5	0.11624	0.468027	-0.586
I 	I 	0.5	0.88376	0.531973	-0.586
I 	I 	0.5	0.531973	0.11624	-0.586
I 	I 	0.5	0.468027	0.88376	-0.586
I 	I 	1.66641e-32	0.88376	0.468027	-0.568
I 	I 	-2.64217e-33	0.11624	0.531973	-0.568
I 	I 	4.16277e-33	0.468027	0.11624	-0.568
I 	I 	3.74132e-33	0.531973	0.88376	-0.568
I 	I 	0.353943	0.153778	0.263967	-0.58
I 	I 	0.353943	0.846222	0.736033	-0.58
I 	I 	0.353943	0.736033	0.153778	-0.58
I 	I 	0.353943	0.263967	0.846222	-0.58
I 	I 	0.146057	0.846222	0.263967	-0.578
I 	I 	0.146057	0.153778	0.736033	-0.578
I 	I 	0.146057	0.263967	0.153778	-0.578
I 	I 	0.146057	0.736033	0.846222	-0.578
I 	I 	0.646057	0.846222	0.736033	-0.58
I 	I 	0.646057	0.153778	0.263967	-0.58
I 	I 	0.646057	0.263967	0.846222	-0.58
I 	I 	0.646057	0.736033	0.153778	-0.58
I 	I 	0.853943	0.153778	0.736033	-0.591
I 	I 	0.853943	0.846222	0.263967	-0.591
I 	I 	0.853943	0.736033	0.846222	-0.591
I 	I 	0.853943	0.263967	0.153778	-0.591
I 	I 	0.5	0.342734	0.35571	-0.629
I 	I 	0.5	0.657266	0.64429	-0.629
I 	I 	0.5	0.64429	0.342734	-0.629
I 	I 	0.5	0.35571	0.657266	-0.629
I 	I 	6.4001e-33	0.657266	0.35571	-0.612
I 	I 	-7.06092e-33	0.342734	0.64429	-0.612
I 	I 	6.34517e-33	0.35571	0.342734	-0.612
I 	I 	2.23594e-32	0.64429	0.657266	-0.612
N 	N 	0.3122	0.23129	0.45278	-0.174
N 	N 	0.3122	0.76871	0.54722	-0.174
N 	N 	0.3122	0.54722	0.23129	-0.174
N 	N 	0.3122	0.45278	0.76871	-0.174
N 	N 	0.1878	0.76871	0.45278	-0.174
N 	N 	0.1878	0.23129	0.54722	-0.174
N 	N 	0.1878	0.45278	0.23129	-0.174
N 	N 	0.1878	0.54722	0.76871	-0.174
N 	N 	0.6878	0.76871	0.54722	-0.174
N 	N 	0.6878	0.23129	0.45278	-0.174
N 	N 	0.6878	0.45278	0.76871	-0.174
N 	N 	0.6878	0.54722	0.23129	-0.174
N 	N 	0.8122	0.23129	0.54722	-0.177
N 	N 	0.8122	0.76871	0.45278	-0.177
N 	N 	0.8122	0.54722	0.76871	-0.177
N 	N 	0.8122	0.45278	0.23129	-0.177
N 	N 	0.5	0.2623	0.1464	-0.176
N 	N 	0.5	0.7377	0.8536	-0.176
N 	N 	0.5	0.8536	0.2623	-0.176
N 	N 	0.5	0.1464	0.7377	-0.176
N 	N 	-6.03787e-34	0.7377	0.1464	-0.17
N 	N 	3.61364e-33	0.2623	0.8536	-0.17
N 	N 	1.11043e-33	0.1464	0.2623	-0.17
N 	N 	1.29115e-32	0.8536	0.7377	-0.17
N 	N 	0.5	0.2968	0.0063	-0.172
N 	N 	0.5	0.7032	0.9937	-0.172
N 	N 	0.5	0.9937	0.2968	-0.172
N 	N 	0.5	0.0063	0.7032	-0.172
N 	N 	9.43278e-33	0.7032	0.0063	-0.167
N 	N 	1.39952e-32	0.2968	0.9937	-0.167
N 	N 	-1.19064e-33	0.0063	0.2968	-0.167
N 	N 	1.27654e-32	0.9937	0.7032	-0.167
_end
