data_functionalizedCrystal
_audit_creation_method	'EQeq! by Chris Wilmer'
_symmetry_space_group_name_H-M	'P1'
_symmetry_Int_Tables_number	1
_symmetry_cell_setting	triclinic
loop_
_symmetry_equiv_pos_as_xyz
  x,y,z
_cell_length_a	25.832
_cell_length_b	25.832
_cell_length_c	25.832
_cell_angle_alpha	90.000000
_cell_angle_beta	90.000000
_cell_angle_gamma	90.000000
loop_
_atom_site_label
_atom_site_type_symbol
_atom_site_fract_x
_atom_site_fract_y
_atom_site_fract_z
_atom_site_charge
cgZn_0	Zn	0.2934	0.2066	0.2066	1.211	
cgO_1	O	0.25	0.25	0.25	-0.968	
cgO_2	O	0.2819	0.2181	0.134	-0.483	
cgC_3	C	0.25	0.25	0.1113	0.32	
cgC_4	C	0.25	0.25	0.0538	-0.065	
cgC_5	C	0.2829	0.2171	0.0269	-0.024	
cgH_6	H	0.3049	0.1951	0.0448	0.053	
cgZn_7	Zn	0.7066	0.7934	0.2066	1.211	
cgO_8	O	0.75	0.75	0.25	-0.968	
cgO_9	O	0.7181	0.7819	0.134	-0.483	
cgC_10	C	0.75	0.75	0.1113	0.32	
cgC_11	C	0.75	0.75	0.0538	-0.065	
cgC_12	C	0.7171	0.7829	0.0269	-0.024	
cgH_13	H	0.6951	0.8049	0.0448	0.053	
cgZn_14	Zn	0.7066	0.2066	0.7934	1.211	
cgO_15	O	0.75	0.25	0.75	-0.968	
cgO_16	O	0.7181	0.2181	0.866	-0.483	
cgC_17	C	0.75	0.25	0.8887	0.32	
cgC_18	C	0.75	0.25	0.9462	-0.065	
cgC_19	C	0.7171	0.2171	0.9731	-0.024	
cgH_20	H	0.6951	0.1951	0.9552	0.053	
cgZn_21	Zn	0.2934	0.7934	0.7934	1.211	
cgO_22	O	0.25	0.75	0.75	-0.968	
cgO_23	O	0.2819	0.7819	0.866	-0.483	
cgC_24	C	0.25	0.75	0.8887	0.32	
cgC_25	C	0.25	0.75	0.9462	-0.065	
cgC_26	C	0.2829	0.7829	0.9731	-0.024	
cgH_27	H	0.3049	0.8049	0.9552	0.053	
cgZn_28	Zn	0.2066	0.2934	0.2066	1.211	
cgO_29	O	0.134	0.2819	0.2181	-0.483	
cgC_30	C	0.1113	0.25	0.25	0.32	
cgC_31	C	0.0538	0.25	0.25	-0.065	
cgC_32	C	0.0269	0.2829	0.2171	-0.024	
cgH_33	H	0.0448	0.3049	0.1951	0.053	
cgZn_34	Zn	0.2066	0.7066	0.7934	1.211	
cgO_35	O	0.134	0.7181	0.7819	-0.483	
cgC_36	C	0.1113	0.75	0.75	0.32	
cgC_37	C	0.0538	0.75	0.75	-0.065	
cgC_38	C	0.0269	0.7171	0.7829	-0.024	
cgH_39	H	0.0448	0.6951	0.8049	0.053	
cgZn_40	Zn	0.7934	0.7066	0.2066	1.211	
cgO_41	O	0.866	0.7181	0.2181	-0.483	
cgC_42	C	0.8887	0.75	0.25	0.32	
cgC_43	C	0.9462	0.75	0.25	-0.065	
cgC_44	C	0.9731	0.7171	0.2171	-0.024	
cgH_45	H	0.9552	0.6951	0.1951	0.053	
cgZn_46	Zn	0.7934	0.2934	0.7934	1.211	
cgO_47	O	0.866	0.2819	0.7819	-0.483	
cgC_48	C	0.8887	0.25	0.75	0.32	
cgC_49	C	0.9462	0.25	0.75	-0.065	
cgC_50	C	0.9731	0.2829	0.7829	-0.024	
cgH_51	H	0.9552	0.3049	0.8049	0.053	
cgZn_52	Zn	0.2066	0.2066	0.2934	1.211	
cgO_53	O	0.2181	0.134	0.2819	-0.483	
cgC_54	C	0.25	0.1113	0.25	0.32	
cgC_55	C	0.25	0.0538	0.25	-0.065	
cgC_56	C	0.2171	0.0269	0.2829	-0.024	
cgH_57	H	0.1951	0.0448	0.3049	0.053	
cgZn_58	Zn	0.7934	0.2066	0.7066	1.211	
cgO_59	O	0.7819	0.134	0.7181	-0.483	
cgC_60	C	0.75	0.1113	0.75	0.32	
cgC_61	C	0.75	0.0538	0.75	-0.065	
cgC_62	C	0.7829	0.0269	0.7171	-0.024	
cgH_63	H	0.8049	0.0448	0.6951	0.053	
cgZn_64	Zn	0.2066	0.7934	0.7066	1.211	
cgO_65	O	0.2181	0.866	0.7181	-0.483	
cgC_66	C	0.25	0.8887	0.75	0.32	
cgC_67	C	0.25	0.9462	0.75	-0.065	
cgC_68	C	0.2171	0.9731	0.7171	-0.024	
cgH_69	H	0.1951	0.9552	0.6951	0.053	
cgZn_70	Zn	0.7934	0.7934	0.2934	1.211	
cgO_71	O	0.7819	0.866	0.2819	-0.483	
cgC_72	C	0.75	0.8887	0.25	0.32	
cgC_73	C	0.75	0.9462	0.25	-0.065	
cgC_74	C	0.7829	0.9731	0.2829	-0.024	
cgH_75	H	0.8049	0.9552	0.3049	0.053	
cgZn_76	Zn	0.2066	0.2934	0.7934	1.211	
cgO_77	O	0.25	0.25	0.75	-0.968	
cgO_78	O	0.2181	0.2819	0.866	-0.483	
cgC_79	C	0.25	0.25	0.8887	0.32	
cgC_80	C	0.25	0.25	0.9462	-0.065	
cgC_81	C	0.2171	0.2829	0.9731	-0.024	
cgH_82	H	0.1951	0.3049	0.9552	0.053	
cgZn_83	Zn	0.7934	0.7066	0.7934	1.211	
cgO_84	O	0.75	0.75	0.75	-0.968	
cgO_85	O	0.7819	0.7181	0.866	-0.483	
cgC_86	C	0.75	0.75	0.8887	0.32	
cgC_87	C	0.75	0.75	0.9462	-0.065	
cgC_88	C	0.7829	0.7171	0.9731	-0.023	
cgH_89	H	0.8049	0.6951	0.9552	0.054	
cgZn_90	Zn	0.2066	0.7066	0.2066	1.212	
cgO_91	O	0.25	0.75	0.25	-0.967	
cgO_92	O	0.2181	0.7181	0.134	-0.482	
cgC_93	C	0.25	0.75	0.1113	0.321	
cgC_94	C	0.25	0.75	0.0538	-0.064	
cgC_95	C	0.2171	0.7171	0.0269	-0.023	
cgH_96	H	0.1951	0.6951	0.0448	0.054	
cgZn_97	Zn	0.7934	0.2934	0.2066	1.212	
cgO_98	O	0.75	0.25	0.25	-0.967	
cgO_99	O	0.7819	0.2819	0.134	-0.482	
cgC_100	C	0.75	0.25	0.1113	0.321	
cgC_101	C	0.75	0.25	0.0538	-0.064	
cgC_102	C	0.7829	0.2829	0.0269	-0.023	
cgH_103	H	0.8049	0.3049	0.0448	0.054	
cgZn_104	Zn	0.2934	0.2066	0.7934	1.212	
cgO_105	O	0.2819	0.134	0.7819	-0.482	
cgC_106	C	0.25	0.1113	0.75	0.321	
cgC_107	C	0.25	0.0538	0.75	-0.064	
cgC_108	C	0.2829	0.0269	0.7829	-0.023	
cgH_109	H	0.3049	0.0448	0.8049	0.054	
cgZn_110	Zn	0.7066	0.2066	0.2066	1.212	
cgO_111	O	0.7181	0.134	0.2181	-0.482	
cgC_112	C	0.75	0.1113	0.25	0.321	
cgC_113	C	0.75	0.0538	0.25	-0.064	
cgC_114	C	0.7171	0.0269	0.2171	-0.023	
cgH_115	H	0.6951	0.0448	0.1951	0.054	
cgZn_116	Zn	0.7066	0.7934	0.7934	1.212	
cgO_117	O	0.7181	0.866	0.7819	-0.482	
cgC_118	C	0.75	0.8887	0.75	0.321	
cgC_119	C	0.75	0.9462	0.75	-0.064	
cgC_120	C	0.7171	0.9731	0.7829	-0.023	
cgH_121	H	0.6951	0.9552	0.8049	0.054	
cgZn_122	Zn	0.2934	0.7934	0.2066	1.212	
cgO_123	O	0.2819	0.866	0.2181	-0.482	
cgC_124	C	0.25	0.8887	0.25	0.321	
cgC_125	C	0.25	0.9462	0.25	-0.064	
cgC_126	C	0.2829	0.9731	0.2171	-0.023	
cgH_127	H	0.3049	0.9552	0.1951	0.054	
cgZn_128	Zn	0.2066	0.2066	0.7066	1.212	
cgO_129	O	0.134	0.2181	0.7181	-0.482	
cgC_130	C	0.1113	0.25	0.75	0.321	
cgC_131	C	0.0538	0.25	0.75	-0.064	
cgC_132	C	0.0269	0.2171	0.7171	-0.023	
cgH_133	H	0.0448	0.1951	0.6951	0.054	
cgZn_134	Zn	0.2066	0.7934	0.2934	1.212	
cgO_135	O	0.134	0.7819	0.2819	-0.482	
cgC_136	C	0.1113	0.75	0.25	0.321	
cgC_137	C	0.0538	0.75	0.25	-0.064	
cgC_138	C	0.0269	0.7829	0.2829	-0.023	
cgH_139	H	0.0448	0.8049	0.3049	0.054	
cgZn_140	Zn	0.7934	0.2066	0.2934	1.212	
cgO_141	O	0.866	0.2181	0.2819	-0.482	
cgC_142	C	0.8887	0.25	0.25	0.321	
cgC_143	C	0.9462	0.25	0.25	-0.064	
cgC_144	C	0.9731	0.2171	0.2829	-0.023	
cgH_145	H	0.9552	0.1951	0.3049	0.054	
cgZn_146	Zn	0.7934	0.7934	0.7066	1.212	
cgO_147	O	0.866	0.7819	0.7181	-0.482	
cgC_148	C	0.8887	0.75	0.75	0.321	
cgC_149	C	0.9462	0.75	0.75	-0.064	
cgC_150	C	0.9731	0.7829	0.7171	-0.023	
cgH_151	H	0.9552	0.8049	0.6951	0.054	
cgO_152	O	0.7181	0.7819	0.866	-0.482	
cgC_153	C	0.7171	0.7829	0.9731	-0.023	
cgH_154	H	0.6951	0.8049	0.9552	0.054	
cgO_155	O	0.2819	0.2181	0.866	-0.482	
cgC_156	C	0.2829	0.2171	0.9731	-0.023	
cgH_157	H	0.3049	0.1951	0.9552	0.054	
cgO_158	O	0.2819	0.7819	0.134	-0.482	
cgC_159	C	0.2829	0.7829	0.0269	-0.023	
cgH_160	H	0.3049	0.8049	0.0448	0.054	
cgO_161	O	0.7181	0.2181	0.134	-0.482	
cgC_162	C	0.7171	0.2171	0.0269	-0.023	
cgH_163	H	0.6951	0.1951	0.0448	0.054	
cgO_164	O	0.866	0.7181	0.7819	-0.482	
cgC_165	C	0.9731	0.7171	0.7829	-0.023	
cgH_166	H	0.9552	0.6951	0.8049	0.054	
cgO_167	O	0.866	0.2819	0.2181	-0.482	
cgC_168	C	0.9731	0.2829	0.2171	-0.023	
cgH_169	H	0.9552	0.3049	0.1951	0.054	
cgO_170	O	0.134	0.2819	0.7819	-0.482	
cgC_171	C	0.0269	0.2829	0.7829	-0.023	
cgH_172	H	0.0448	0.3049	0.8049	0.054	
cgO_173	O	0.134	0.7181	0.2181	-0.482	
cgC_174	C	0.0269	0.7171	0.2171	-0.023	
cgH_175	H	0.0448	0.6951	0.1951	0.054	
cgO_176	O	0.7819	0.866	0.7181	-0.482	
cgC_177	C	0.7829	0.9731	0.7171	-0.023	
cgH_178	H	0.8049	0.9552	0.6951	0.054	
cgO_179	O	0.2181	0.866	0.2819	-0.482	
cgC_180	C	0.2171	0.9731	0.2829	-0.023	
cgH_181	H	0.1951	0.9552	0.3049	0.054	
cgO_182	O	0.7819	0.134	0.2819	-0.482	
cgC_183	C	0.7829	0.0269	0.2829	-0.023	
cgH_184	H	0.8049	0.0448	0.3049	0.054	
cgO_185	O	0.2181	0.134	0.7181	-0.482	
cgC_186	C	0.2171	0.0269	0.7171	-0.023	
cgH_187	H	0.1951	0.0448	0.6951	0.054	
cgO_188	O	0.7819	0.7181	0.134	-0.482	
cgC_189	C	0.7829	0.7171	0.0269	-0.023	
cgH_190	H	0.8049	0.6951	0.0448	0.054	
cgO_191	O	0.2181	0.2819	0.134	-0.482	
cgC_192	C	0.2171	0.2829	0.0269	-0.023	
cgH_193	H	0.1951	0.3049	0.0448	0.054	
cgO_194	O	0.7819	0.2819	0.866	-0.482	
cgC_195	C	0.7829	0.2829	0.9731	-0.023	
cgH_196	H	0.8049	0.3049	0.9552	0.054	
cgO_197	O	0.2181	0.7181	0.866	-0.482	
cgC_198	C	0.2171	0.7171	0.9731	-0.023	
cgH_199	H	0.1951	0.6951	0.9552	0.054	
cgO_200	O	0.7181	0.866	0.2181	-0.482	
cgC_201	C	0.7171	0.9731	0.2171	-0.023	
cgH_202	H	0.6951	0.9552	0.1951	0.054	
cgO_203	O	0.2819	0.866	0.7819	-0.482	
cgC_204	C	0.2829	0.9731	0.7829	-0.023	
cgH_205	H	0.3049	0.9552	0.8049	0.054	
cgO_206	O	0.2819	0.134	0.2181	-0.482	
cgC_207	C	0.2829	0.0269	0.2171	-0.023	
cgH_208	H	0.3049	0.0448	0.1951	0.054	
cgO_209	O	0.7181	0.134	0.7819	-0.482	
cgC_210	C	0.7171	0.0269	0.7829	-0.023	
cgH_211	H	0.6951	0.0448	0.8049	0.054	
cgO_212	O	0.866	0.7819	0.2819	-0.482	
cgC_213	C	0.9731	0.7829	0.2829	-0.023	
cgH_214	H	0.9552	0.8049	0.3049	0.054	
cgO_215	O	0.866	0.2181	0.7181	-0.482	
cgC_216	C	0.9731	0.2171	0.7171	-0.023	
cgH_217	H	0.9552	0.1951	0.6951	0.054	
cgO_218	O	0.134	0.7819	0.7181	-0.482	
cgC_219	C	0.0269	0.7829	0.7171	-0.023	
cgH_220	H	0.0448	0.8049	0.6951	0.054	
cgO_221	O	0.134	0.2181	0.2819	-0.482	
cgC_222	C	0.0269	0.2171	0.2829	-0.023	
cgH_223	H	0.0448	0.1951	0.3049	0.054	
cgZn_224	Zn	0.2934	0.7066	0.7066	1.212	
cgO_225	O	0.2819	0.7181	0.634	-0.482	
cgC_226	C	0.25	0.75	0.6113	0.321	
cgC_227	C	0.25	0.75	0.5538	-0.064	
cgC_228	C	0.2829	0.7171	0.5269	-0.023	
cgH_229	H	0.3049	0.6951	0.5448	0.054	
cgZn_230	Zn	0.7066	0.2934	0.7066	1.212	
cgO_231	O	0.7181	0.2819	0.634	-0.482	
cgC_232	C	0.75	0.25	0.6113	0.321	
cgC_233	C	0.75	0.25	0.5538	-0.064	
cgC_234	C	0.7171	0.2829	0.5269	-0.023	
cgH_235	H	0.6951	0.3049	0.5448	0.054	
cgZn_236	Zn	0.7066	0.7066	0.2934	1.212	
cgO_237	O	0.7181	0.7181	0.366	-0.482	
cgC_238	C	0.75	0.75	0.3887	0.321	
cgC_239	C	0.75	0.75	0.4462	-0.064	
cgC_240	C	0.7171	0.7171	0.4731	-0.023	
cgH_241	H	0.6951	0.6951	0.4552	0.054	
cgZn_242	Zn	0.2934	0.2934	0.2934	1.212	
cgO_243	O	0.2819	0.2819	0.366	-0.482	
cgC_244	C	0.25	0.25	0.3887	0.321	
cgC_245	C	0.25	0.25	0.4462	-0.064	
cgC_246	C	0.2829	0.2829	0.4731	-0.023	
cgH_247	H	0.3049	0.3049	0.4552	0.054	
cgO_248	O	0.2181	0.634	0.7819	-0.482	
cgC_249	C	0.25	0.6113	0.75	0.321	
cgC_250	C	0.25	0.5538	0.75	-0.064	
cgC_251	C	0.2171	0.5269	0.7829	-0.023	
cgH_252	H	0.1951	0.5448	0.8049	0.054	
cgO_253	O	0.7819	0.634	0.2181	-0.482	
cgC_254	C	0.75	0.6113	0.25	0.321	
cgC_255	C	0.75	0.5538	0.25	-0.064	
cgC_256	C	0.7829	0.5269	0.2171	-0.023	
cgH_257	H	0.8049	0.5448	0.1951	0.054	
cgO_258	O	0.2181	0.366	0.2181	-0.482	
cgC_259	C	0.25	0.3887	0.25	0.321	
cgC_260	C	0.25	0.4462	0.25	-0.064	
cgC_261	C	0.2171	0.4731	0.2171	-0.023	
cgH_262	H	0.1951	0.4552	0.1951	0.054	
cgO_263	O	0.7819	0.366	0.7819	-0.482	
cgC_264	C	0.75	0.3887	0.75	0.321	
cgC_265	C	0.75	0.4462	0.75	-0.064	
cgC_266	C	0.7829	0.4731	0.7829	-0.023	
cgH_267	H	0.8049	0.4552	0.8049	0.054	
cgO_268	O	0.2181	0.7819	0.366	-0.482	
cgC_269	C	0.25	0.75	0.3887	0.321	
cgC_270	C	0.25	0.75	0.4462	-0.064	
cgC_271	C	0.2171	0.7829	0.4731	-0.023	
cgH_272	H	0.1951	0.8049	0.4552	0.054	
cgO_273	O	0.7819	0.2181	0.366	-0.482	
cgC_274	C	0.75	0.25	0.3887	0.321	
cgC_275	C	0.75	0.25	0.4462	-0.064	
cgC_276	C	0.7829	0.2171	0.4731	-0.023	
cgH_277	H	0.8049	0.1951	0.4552	0.054	
cgO_278	O	0.2181	0.2181	0.634	-0.482	
cgC_279	C	0.25	0.25	0.6113	0.321	
cgC_280	C	0.25	0.25	0.5538	-0.064	
cgC_281	C	0.2171	0.2171	0.5269	-0.023	
cgH_282	H	0.1951	0.1951	0.5448	0.054	
cgO_283	O	0.7819	0.7819	0.634	-0.482	
cgC_284	C	0.75	0.75	0.6113	0.321	
cgC_285	C	0.75	0.75	0.5538	-0.064	
cgC_286	C	0.7829	0.7829	0.5269	-0.023	
cgH_287	H	0.8049	0.8049	0.5448	0.054	
cgZn_288	Zn	0.2934	0.7066	0.2934	1.212	
cgO_289	O	0.2819	0.634	0.2819	-0.482	
cgC_290	C	0.25	0.6113	0.25	0.321	
cgC_291	C	0.25	0.5538	0.25	-0.064	
cgC_292	C	0.2829	0.5269	0.2829	-0.023	
cgH_293	H	0.3049	0.5448	0.3049	0.054	
cgZn_294	Zn	0.7066	0.7066	0.7066	1.212	
cgO_295	O	0.7181	0.634	0.7181	-0.482	
cgC_296	C	0.75	0.6113	0.75	0.321	
cgC_297	C	0.75	0.5538	0.75	-0.064	
cgC_298	C	0.7171	0.5269	0.7171	-0.023	
cgH_299	H	0.6951	0.5448	0.6951	0.054	
cgZn_300	Zn	0.7066	0.2934	0.2934	1.212	
cgO_301	O	0.7181	0.366	0.2819	-0.482	
cgC_302	C	0.75	0.3887	0.25	0.321	
cgC_303	C	0.75	0.4462	0.25	-0.064	
cgC_304	C	0.7171	0.4731	0.2829	-0.023	
cgH_305	H	0.6951	0.4552	0.3049	0.054	
cgZn_306	Zn	0.2934	0.2934	0.7066	1.212	
cgO_307	O	0.2819	0.366	0.7181	-0.482	
cgC_308	C	0.25	0.3887	0.75	0.321	
cgC_309	C	0.25	0.4462	0.75	-0.064	
cgC_310	C	0.2829	0.4731	0.7171	-0.023	
cgH_311	H	0.3049	0.4552	0.6951	0.054	
cgO_312	O	0.7181	0.2819	0.366	-0.482	
cgC_313	C	0.7171	0.2829	0.4731	-0.023	
cgH_314	H	0.6951	0.3049	0.4552	0.054	
cgO_315	O	0.2819	0.7181	0.366	-0.482	
cgC_316	C	0.2829	0.7171	0.4731	-0.023	
cgH_317	H	0.3049	0.6951	0.4552	0.054	
cgO_318	O	0.2819	0.2819	0.634	-0.482	
cgC_319	C	0.2829	0.2829	0.5269	-0.023	
cgH_320	H	0.3049	0.3049	0.5448	0.054	
cgO_321	O	0.7181	0.7181	0.634	-0.482	
cgC_322	C	0.7171	0.7171	0.5269	-0.023	
cgH_323	H	0.6951	0.6951	0.5448	0.054	
cgO_324	O	0.7819	0.366	0.2181	-0.482	
cgC_325	C	0.7829	0.4731	0.2171	-0.023	
cgH_326	H	0.8049	0.4552	0.1951	0.054	
cgO_327	O	0.2181	0.366	0.7819	-0.482	
cgC_328	C	0.2171	0.4731	0.7829	-0.023	
cgH_329	H	0.1951	0.4552	0.8049	0.054	
cgO_330	O	0.7819	0.634	0.7819	-0.482	
cgC_331	C	0.7829	0.5269	0.7829	-0.023	
cgH_332	H	0.8049	0.5448	0.8049	0.054	
cgO_333	O	0.2181	0.634	0.2181	-0.482	
cgC_334	C	0.2171	0.5269	0.2171	-0.023	
cgH_335	H	0.1951	0.5448	0.1951	0.054	
cgO_336	O	0.7819	0.2181	0.634	-0.482	
cgC_337	C	0.7829	0.2171	0.5269	-0.023	
cgH_338	H	0.8049	0.1951	0.5448	0.054	
cgO_339	O	0.2181	0.7819	0.634	-0.482	
cgC_340	C	0.2171	0.7829	0.5269	-0.023	
cgH_341	H	0.1951	0.8049	0.5448	0.054	
cgO_342	O	0.7819	0.7819	0.366	-0.482	
cgC_343	C	0.7829	0.7829	0.4731	-0.023	
cgH_344	H	0.8049	0.8049	0.4552	0.054	
cgO_345	O	0.2181	0.2181	0.366	-0.482	
cgC_346	C	0.2171	0.2171	0.4731	-0.023	
cgH_347	H	0.1951	0.1951	0.4552	0.054	
cgO_348	O	0.7181	0.366	0.7181	-0.482	
cgC_349	C	0.7171	0.4731	0.7171	-0.023	
cgH_350	H	0.6951	0.4552	0.6951	0.054	
cgO_351	O	0.2819	0.366	0.2819	-0.482	
cgC_352	C	0.2829	0.4731	0.2829	-0.023	
cgH_353	H	0.3049	0.4552	0.3049	0.054	
cgO_354	O	0.2819	0.634	0.7181	-0.482	
cgC_355	C	0.2829	0.5269	0.7171	-0.023	
cgH_356	H	0.3049	0.5448	0.6951	0.054	
cgO_357	O	0.7181	0.634	0.2819	-0.482	
cgC_358	C	0.7171	0.5269	0.2829	-0.023	
cgH_359	H	0.6951	0.5448	0.3049	0.054	
cgO_360	O	0.634	0.2819	0.7181	-0.482	
cgC_361	C	0.6113	0.25	0.75	0.321	
cgC_362	C	0.5538	0.25	0.75	-0.064	
cgC_363	C	0.5269	0.2829	0.7171	-0.023	
cgH_364	H	0.5448	0.3049	0.6951	0.054	
cgO_365	O	0.634	0.7181	0.2819	-0.482	
cgC_366	C	0.6113	0.75	0.25	0.321	
cgC_367	C	0.5538	0.75	0.25	-0.064	
cgC_368	C	0.5269	0.7171	0.2829	-0.023	
cgH_369	H	0.5448	0.6951	0.3049	0.054	
cgO_370	O	0.366	0.7181	0.7181	-0.482	
cgC_371	C	0.3887	0.75	0.75	0.321	
cgC_372	C	0.4462	0.75	0.75	-0.064	
cgC_373	C	0.4731	0.7171	0.7171	-0.023	
cgH_374	H	0.4552	0.6951	0.6951	0.054	
cgO_375	O	0.366	0.2819	0.2819	-0.482	
cgC_376	C	0.3887	0.25	0.25	0.321	
cgC_377	C	0.4462	0.25	0.25	-0.064	
cgC_378	C	0.4731	0.2829	0.2829	-0.023	
cgH_379	H	0.4552	0.3049	0.3049	0.054	
cgO_380	O	0.634	0.2181	0.2181	-0.482	
cgC_381	C	0.6113	0.25	0.25	0.321	
cgC_382	C	0.5538	0.25	0.25	-0.064	
cgC_383	C	0.5269	0.2171	0.2171	-0.023	
cgH_384	H	0.5448	0.1951	0.1951	0.054	
cgO_385	O	0.634	0.7819	0.7819	-0.482	
cgC_386	C	0.6113	0.75	0.75	0.321	
cgC_387	C	0.5538	0.75	0.75	-0.064	
cgC_388	C	0.5269	0.7829	0.7829	-0.023	
cgH_389	H	0.5448	0.8049	0.8049	0.054	
cgO_390	O	0.366	0.2181	0.7819	-0.482	
cgC_391	C	0.3887	0.25	0.75	0.321	
cgC_392	C	0.4462	0.25	0.75	-0.064	
cgC_393	C	0.4731	0.2171	0.7829	-0.023	
cgH_394	H	0.4552	0.1951	0.8049	0.054	
cgO_395	O	0.366	0.7819	0.2181	-0.482	
cgC_396	C	0.3887	0.75	0.25	0.321	
cgC_397	C	0.4462	0.75	0.25	-0.064	
cgC_398	C	0.4731	0.7829	0.2171	-0.023	
cgH_399	H	0.4552	0.8049	0.1951	0.054	
cgO_400	O	0.366	0.7181	0.2819	-0.482	
cgC_401	C	0.4731	0.7171	0.2829	-0.023	
cgH_402	H	0.4552	0.6951	0.3049	0.054	
cgO_403	O	0.366	0.2819	0.7181	-0.482	
cgC_404	C	0.4731	0.2829	0.7171	-0.023	
cgH_405	H	0.4552	0.3049	0.6951	0.054	
cgO_406	O	0.634	0.2819	0.2819	-0.482	
cgC_407	C	0.5269	0.2829	0.2829	-0.023	
cgH_408	H	0.5448	0.3049	0.3049	0.054	
cgO_409	O	0.634	0.7181	0.7181	-0.482	
cgC_410	C	0.5269	0.7171	0.7171	-0.023	
cgH_411	H	0.5448	0.6951	0.6951	0.054	
cgO_412	O	0.366	0.7819	0.7819	-0.482	
cgC_413	C	0.4731	0.7829	0.7829	-0.023	
cgH_414	H	0.4552	0.8049	0.8049	0.054	
cgO_415	O	0.366	0.2181	0.2181	-0.482	
cgC_416	C	0.4731	0.2171	0.2171	-0.023	
cgH_417	H	0.4552	0.1951	0.1951	0.054	
cgO_418	O	0.634	0.7819	0.2181	-0.482	
cgC_419	C	0.5269	0.7829	0.2171	-0.023	
cgH_420	H	0.5448	0.8049	0.1951	0.054	
cgO_421	O	0.634	0.2181	0.7819	-0.482	
cgC_422	C	0.5269	0.2171	0.7829	-0.023	
cgH_423	H	0.5448	0.1951	0.8049	0.054	
_end