data_functionalizedCrystal
_audit_creation_method	'EQeq! by Chris Wilmer'
_symmetry_space_group_name_H-M	'P1'
_symmetry_Int_Tables_number	1
_symmetry_cell_setting	triclinic
loop_
_symmetry_equiv_pos_as_xyz
  x,y,z
_cell_length_a	9.821
_cell_length_b	15.076
_cell_length_c	16.555
_cell_angle_alpha	111.21
_cell_angle_beta	90
_cell_angle_gamma	90
loop_
_atom_site_label
_atom_site_type_symbol
_atom_site_fract_x
_atom_site_fract_y
_atom_site_fract_z
_atom_site_charge
Mg	Mg	0.08092	0.34513	0.11278	1.442
Mg	Mg	0.58092	0.15487	0.38722	1.452
Mg	Mg	0.91908	0.65487	0.88722	1.462
Mg	Mg	0.41908	0.84513	0.61278	1.453
Mg	Mg	-0	0.5	-0	1.466
Mg	Mg	0.5	0	0.5	1.472
H 	H 	0.7349	0.3264	0.8502	0.048
H 	H 	0.6212	0.217	0.7316	0.055
H 	H 	0.688	0.0123	0.8297	0.013
H 	H 	0.8084	0.1213	0.9453	0.026
H 	H 	0.5048	0.5106	0.1443	-0.004
H 	H 	0.3065	0.4391	0.9138	0.003
H 	H 	0.2349	0.1736	0.6498	0.028
H 	H 	0.1212	0.283	0.7684	0.03
H 	H 	0.188	0.4877	0.6703	0.015
H 	H 	0.3084	0.3787	0.5547	0.015
H 	H 	0.0048	0.9894	0.3557	0.038
H 	H 	0.8065	0.0609	0.5862	0.048
H 	H 	0.2651	0.6736	0.1498	0.047
H 	H 	0.3788	0.783	0.2684	0.031
H 	H 	0.312	0.9877	0.1703	0.022
H 	H 	0.1916	0.8787	0.0547	0.015
H 	H 	0.4952	0.4894	0.8557	0.084
H 	H 	0.6935	0.5609	0.0862	0.091
H 	H 	0.7651	0.8264	0.3502	0.066
H 	H 	0.8788	0.717	0.2316	0.059
H 	H 	0.812	0.5123	0.3297	0.024
H 	H 	0.6916	0.6213	0.4453	0.028
H 	H 	0.9952	0.0106	0.6443	0.041
H 	H 	0.1935	0.9391	0.4138	0.045
C 	C 	0.8661	0.3059	0.9807	0.482
C 	C 	0.7833	0.2338	0.9082	-0.115
C 	C 	0.7268	0.262	0.8458	0.012
C 	C 	0.6572	0.1969	0.7754	-0.035
C 	C 	0.6407	0.1038	0.7692	-0.07
C 	C 	0.6976	0.0763	0.833	-0.041
C 	C 	0.7693	0.1414	0.9023	0.005
C 	C 	0.567	0.0334	0.6909	0.319
C 	C 	0.264	0.4393	0.0738	0.388
C 	C 	0.386	0.4723	0.0365	-0.229
C 	C 	0.5025	0.5068	0.0858	0.103
C 	C 	0.3842	0.4641	0.9488	0.144
C 	C 	0.3661	0.1941	0.5193	0.428
C 	C 	0.2833	0.2662	0.5918	-0.116
C 	C 	0.2268	0.238	0.6542	-0.013
C 	C 	0.1572	0.3031	0.7246	-0.021
C 	C 	0.1407	0.3962	0.7308	-0.109
C 	C 	0.1976	0.4237	0.667	-0.022
C 	C 	0.2693	0.3586	0.5977	-0.018
C 	C 	0.067	0.4666	0.8091	0.422
C 	C 	0.764	0.0607	0.4262	0.333
C 	C 	0.886	0.0277	0.4635	-0.076
C 	C 	0.0025	0.9932	0.4142	-0.029
C 	C 	0.8842	0.0359	0.5512	-0.033
C 	C 	0.1339	0.6941	0.0193	0.344
C 	C 	0.2167	0.7662	0.0918	-0.083
C 	C 	0.2732	0.738	0.1542	-0.042
C 	C 	0.3428	0.8031	0.2246	0.012
C 	C 	0.3593	0.8962	0.2308	-0.136
C 	C 	0.3024	0.9237	0.167	0.011
C 	C 	0.2307	0.8586	0.0977	-0.046
C 	C 	0.433	0.9666	0.3091	0.527
C 	C 	0.736	0.5607	0.9262	0.295
C 	C 	0.614	0.5277	0.9635	0.058
C 	C 	0.4975	0.4932	0.9142	-0.129
C 	C 	0.6158	0.5359	0.0512	-0.184
C 	C 	0.6339	0.8059	0.4807	0.421
C 	C 	0.7167	0.7338	0.4082	-0.089
C 	C 	0.7732	0.762	0.3458	-0.01
C 	C 	0.8428	0.6969	0.2754	-0.006
C 	C 	0.8593	0.6038	0.2692	-0.092
C 	C 	0.8024	0.5763	0.333	-0.012
C 	C 	0.7307	0.6414	0.4023	-0.017
C 	C 	0.933	0.5334	0.1909	0.422
C 	C 	0.236	0.9393	0.5738	0.348
C 	C 	0.114	0.9723	0.5365	-0.088
C 	C 	0.9975	0.0068	0.5858	0.002
C 	C 	0.1158	0.9641	0.4488	-0.013
O 	O 	0.9268	0.2749	0.03316	-0.592
O 	O 	0.87	0.38833	0.98198	-0.479
O 	O 	0.5487	0.06071	0.6282	-0.491
O 	O 	0.5327	0.95466	0.69461	-0.462
O 	O 	0.2755	0.4238	0.14383	-0.521
O 	O 	0.1539	0.41998	0.03166	-0.689
O 	O 	0.4268	0.2251	0.46684	-0.576
O 	O 	0.37	0.11167	0.51802	-0.541
O 	O 	0.0487	0.43929	0.8718	-0.509
O 	O 	0.0327	0.54534	0.80539	-0.575
O 	O 	0.7755	0.0762	0.35617	-0.481
O 	O 	0.6539	0.08002	0.46834	-0.628
O 	O 	0.0732	0.7251	0.96684	-0.519
O 	O 	0.13	0.61167	0.01802	-0.533
O 	O 	0.4513	0.93929	0.3718	-0.498
O 	O 	0.4673	0.04534	0.30539	-0.645
O 	O 	0.7245	0.5762	0.85617	-0.435
O 	O 	0.8461	0.58002	0.96834	-0.547
O 	O 	0.5732	0.7749	0.53316	-0.555
O 	O 	0.63	0.88833	0.48198	-0.473
O 	O 	0.9513	0.56071	0.1282	-0.47
O 	O 	0.9673	0.45466	0.19461	-0.527
O 	O 	0.2245	0.9238	0.64383	-0.469
O 	O 	0.3461	0.91998	0.53166	-0.602
_end
