data_functionalizedCrystal
_audit_creation_method	'EQeq! by Chris Wilmer'
_symmetry_space_group_name_H-M	'P1'
_symmetry_Int_Tables_number	1
_symmetry_cell_setting	triclinic
loop_
_symmetry_equiv_pos_as_xyz
  x,y,z
_cell_length_a	10.324
_cell_length_b	12.813
_cell_length_c	15.526
_cell_angle_alpha	90
_cell_angle_beta	104.633
_cell_angle_gamma	90
loop_
_atom_site_label
_atom_site_type_symbol
_atom_site_fract_x
_atom_site_fract_y
_atom_site_fract_z
_atom_site_charge
Zn	Zn	0.75	0.81232	0.5	1.213
Zn	Zn	0.25	0.18768	0.5	1.213
H 	H 	0.4888	0.8375	0.3395	-0.013
H 	H 	0.7669	0.0477	0.4176	0.022
H 	H 	0.6022	0.1233	0.2911	0.034
H 	H 	0.3426	0.8419	0.2013	0.055
H 	H 	0.159	0.8617	0.0789	0.05
H 	H 	0.1818	0.1686	0.1079	0.054
H 	H 	0.3701	0.1517	0.224	0.07
H 	H 	0.0424	0.6958	0.3424	0.031
H 	H 	0.1025	0.6267	0.2209	0.074
H 	H 	0.7272	0.527	0.1198	0.081
H 	H 	0.6651	0.5948	0.2407	0.025
H 	H 	0.8707	0.3739	0.1512	0.244
H 	H 	0.9629	0.2915	0.1214	0.242
H 	H 	0.8172	0.3109	0.0628	0.228
H 	H 	0.0205	0.6725	0.0429	0.083
H 	H 	0.0112	0.8375	0.6605	-0.013
H 	H 	0.7331	0.0477	0.5824	0.023
H 	H 	0.8978	0.1233	0.7089	0.035
H 	H 	0.1574	0.8419	0.7987	0.056
H 	H 	0.341	0.8617	0.9211	0.051
H 	H 	0.3182	0.1686	0.8921	0.055
H 	H 	0.1299	0.1517	0.776	0.07
H 	H 	0.4576	0.6958	0.6576	0.031
H 	H 	0.3975	0.6267	0.7791	0.075
H 	H 	0.7728	0.527	0.8802	0.082
H 	H 	0.8349	0.5948	0.7593	0.024
H 	H 	0.6293	0.3739	0.8488	0.245
H 	H 	0.5371	0.2915	0.8786	0.243
H 	H 	0.6828	0.3109	0.9372	0.229
H 	H 	0.4795	0.6725	0.9571	0.084
H 	H 	0.5112	0.1625	0.6605	-0.012
H 	H 	0.2331	0.9523	0.5824	0.023
H 	H 	0.3978	0.8767	0.7089	0.035
H 	H 	0.6574	0.1581	0.7987	0.056
H 	H 	0.841	0.1383	0.9211	0.051
H 	H 	0.8182	0.8314	0.8921	0.055
H 	H 	0.6299	0.8483	0.776	0.071
H 	H 	0.9576	0.3042	0.6576	0.032
H 	H 	0.8975	0.3733	0.7791	0.074
H 	H 	0.2728	0.473	0.8802	0.081
H 	H 	0.3349	0.4052	0.7593	0.025
H 	H 	0.1293	0.6261	0.8488	0.244
H 	H 	0.0371	0.7085	0.8786	0.242
H 	H 	0.1828	0.6891	0.9372	0.228
H 	H 	0.9795	0.3275	0.9571	0.083
H 	H 	0.9888	0.1625	0.3395	-0.013
H 	H 	0.2669	0.9523	0.4176	0.023
H 	H 	0.1022	0.8767	0.2911	0.035
H 	H 	0.8426	0.1581	0.2013	0.056
H 	H 	0.659	0.1383	0.0789	0.051
H 	H 	0.6818	0.8314	0.1079	0.055
H 	H 	0.8701	0.8483	0.224	0.07
H 	H 	0.5424	0.3042	0.3424	0.031
H 	H 	0.6025	0.3733	0.2209	0.075
H 	H 	0.2272	0.473	0.1198	0.082
H 	H 	0.1651	0.4052	0.2407	0.024
H 	H 	0.3707	0.6261	0.1512	0.245
H 	H 	0.4629	0.7085	0.1214	0.243
H 	H 	0.3172	0.6891	0.0628	0.229
H 	H 	0.5205	0.3275	0.0429	0.084
C 	C 	0.533	0.9014	0.3475	0.114
C 	C 	0.6867	0.0166	0.388	-0
C 	C 	0.5967	0.0595	0.3185	0.002
C 	C 	0.3751	0.9954	0.2243	0.102
C 	C 	0.3114	0.9082	0.1821	-0.091
C 	C 	0.1997	0.9199	0.1102	-0.062
C 	C 	0.1506	0.0175	0.086	0.082
C 	C 	0.2142	0.1025	0.1268	-0.062
C 	C 	0.3268	0.0925	0.1962	-0.087
C 	C 	0.8033	0.7034	0.3795	0.311
C 	C 	0.8454	0.6538	0.3036	-0.105
C 	C 	0.9788	0.6625	0.2977	0.04
C 	C 	0.0143	0.621	0.2246	-0.131
C 	C 	0.9209	0.5708	0.1563	0.087
C 	C 	0.7905	0.5613	0.1641	-0.148
C 	C 	0.753	0.6021	0.2367	0.047
C 	C 	0.9598	0.5315	0.0757	-0.073
C 	C 	0.9466	0.4268	0.05	0.207
C 	C 	0.8946	0.3432	0.101	-0.717
C 	C 	0.0125	0.6029	0.0255	-0.158
C 	C 	0.967	0.9014	0.6525	0.115
C 	C 	0.8133	0.0166	0.612	-0
C 	C 	0.9033	0.0595	0.6815	0.003
C 	C 	0.1249	0.9954	0.7757	0.102
C 	C 	0.1886	0.9082	0.8179	-0.091
C 	C 	0.3003	0.9199	0.8898	-0.062
C 	C 	0.3494	0.0175	0.914	0.081
C 	C 	0.2858	0.1025	0.8732	-0.062
C 	C 	0.1732	0.0925	0.8038	-0.087
C 	C 	0.6967	0.7034	0.6205	0.311
C 	C 	0.6546	0.6538	0.6964	-0.106
C 	C 	0.5212	0.6625	0.7023	0.043
C 	C 	0.4857	0.621	0.7754	-0.133
C 	C 	0.5791	0.5708	0.8437	0.089
C 	C 	0.7095	0.5613	0.8359	-0.149
C 	C 	0.747	0.6021	0.7633	0.048
C 	C 	0.5402	0.5315	0.9243	-0.073
C 	C 	0.5534	0.4268	0.95	0.209
C 	C 	0.6054	0.3432	0.899	-0.719
C 	C 	0.4875	0.6029	0.9745	-0.16
C 	C 	0.467	0.0986	0.6525	0.114
C 	C 	0.3133	0.9834	0.612	-0
C 	C 	0.4033	0.9405	0.6815	0.002
C 	C 	0.6249	0.0046	0.7757	0.102
C 	C 	0.6886	0.0918	0.8179	-0.091
C 	C 	0.8003	0.0801	0.8898	-0.062
C 	C 	0.8494	0.9825	0.914	0.082
C 	C 	0.7858	0.8975	0.8732	-0.062
C 	C 	0.6732	0.9075	0.8038	-0.087
C 	C 	0.1967	0.2966	0.6205	0.311
C 	C 	0.1546	0.3462	0.6964	-0.105
C 	C 	0.0212	0.3375	0.7023	0.04
C 	C 	0.9857	0.379	0.7754	-0.131
C 	C 	0.0791	0.4292	0.8437	0.087
C 	C 	0.2095	0.4387	0.8359	-0.148
C 	C 	0.247	0.3979	0.7633	0.047
C 	C 	0.0402	0.4685	0.9243	-0.073
C 	C 	0.0534	0.5732	0.95	0.207
C 	C 	0.1054	0.6568	0.899	-0.717
C 	C 	0.9875	0.3971	0.9745	-0.158
C 	C 	0.033	0.0986	0.3475	0.115
C 	C 	0.1867	0.9834	0.388	-0
C 	C 	0.0967	0.9405	0.3185	0.003
C 	C 	0.8751	0.0046	0.2243	0.102
C 	C 	0.8114	0.0918	0.1821	-0.091
C 	C 	0.6997	0.0801	0.1102	-0.062
C 	C 	0.6506	0.9825	0.086	0.081
C 	C 	0.7142	0.8975	0.1268	-0.062
C 	C 	0.8268	0.9075	0.1962	-0.087
C 	C 	0.3033	0.2966	0.3795	0.311
C 	C 	0.3454	0.3462	0.3036	-0.106
C 	C 	0.4788	0.3375	0.2977	0.043
C 	C 	0.5143	0.379	0.2246	-0.133
C 	C 	0.4209	0.4292	0.1563	0.089
C 	C 	0.2905	0.4387	0.1641	-0.149
C 	C 	0.253	0.3979	0.2367	0.048
C 	C 	0.4598	0.4685	0.0757	-0.073
C 	C 	0.4466	0.5732	0.05	0.209
C 	C 	0.3946	0.6568	0.101	-0.719
C 	C 	0.5125	0.3971	0.0255	-0.16
N 	N 	0.6422	0.9181	0.4096	-0.251
N 	N 	0.4906	0.9843	0.2966	-0.141
N 	N 	0.0272	0.0401	0.0158	-0.087
N 	N 	0.8578	0.9181	0.5904	-0.251
N 	N 	0.0094	0.9843	0.7034	-0.142
N 	N 	0.4728	0.0401	0.9842	-0.088
N 	N 	0.3578	0.0819	0.5904	-0.251
N 	N 	0.5094	0.0157	0.7034	-0.141
N 	N 	0.9728	0.9599	0.9842	-0.087
N 	N 	0.1422	0.0819	0.4096	-0.251
N 	N 	0.9906	0.0157	0.2966	-0.142
N 	N 	0.5272	0.9599	0.0158	-0.088
O 	O 	0.6876	0.6905	0.3884	-0.36
O 	O 	0.8858	0.7617	0.43306	-0.412
O 	O 	0.8124	0.6905	0.6116	-0.36
O 	O 	0.6142	0.7617	0.56694	-0.412
O 	O 	0.3124	0.3095	0.6116	-0.36
O 	O 	0.1142	0.2383	0.56694	-0.412
O 	O 	0.1876	0.3095	0.3884	-0.36
O 	O 	0.3858	0.2383	0.43306	-0.412
_end
