# CIF file generated by openbabel 2.3.1, see http://openbabel.sf.net
data_I
_chemical_name_common 'MOF-801'
_cell_length_a 17.835
_cell_length_b 17.835
_cell_length_c 17.835
_cell_angle_alpha 90
_cell_angle_beta 90
_cell_angle_gamma 90
_space_group_name_H-M_alt 'P n -3'
_space_group_name_Hall 'P 2 2 3 -1n'
loop_
_atom_site_type_symbol
_atom_site_label
_atom_site_Cartn_x
_atom_site_Cartn_y
_atom_site_Cartn_z
Zr   Zr1     2.45900    9.11600    0.21200
Zr   Zr2    15.37600    8.71900    0.21200
Zr   Zr3    15.37600    9.11600   17.62300
Zr   Zr4     2.45900    8.71900   17.62300
Zr   Zr5     0.21200    2.45900    9.11600
Zr   Zr6     0.21200   15.37600    8.71900
Zr   Zr7    17.62300   15.37600    9.11600
Zr   Zr8    17.62300    2.45900    8.71900
Zr   Zr9     9.11600    0.21200    2.45900
Zr   Zr10     8.71900    0.21200   15.37600
Zr   Zr11     9.11600   17.62300   15.37600
Zr   Zr12     8.71900   17.62300    2.45900
Zr   Zr13     6.45900   17.63600    8.70600
Zr   Zr14    11.37600    0.19900    8.70600
Zr   Zr15    11.37600   17.63600    9.12900
Zr   Zr16     6.45900    0.19900    9.12900
Zr   Zr17     8.70600    6.45900   17.63600
Zr   Zr18     8.70600   11.37600    0.19900
Zr   Zr19     9.12900   11.37600   17.63600
Zr   Zr20     9.12900    6.45900    0.19900
Zr   Zr21    17.63600    8.70600    6.45900
Zr   Zr22     0.19900    8.70600   11.37600
Zr   Zr23    17.63600    9.12900   11.37600
Zr   Zr24     0.19900    9.12900    6.45900
O    O25     3.72700    7.28600    0.14300
O    O26    14.10700   10.54900    0.14300
O    O27    14.10700    7.28600   17.69200
O    O28     3.72700   10.54900   17.69200
O    O29     0.14300    3.72700    7.28600
O    O30     0.14300   14.10700   10.54900
O    O31    17.69200   14.10700    7.28600
O    O32    17.69200    3.72700   10.54900
O    O33     7.28600    0.14300    3.72700
O    O34    10.54900    0.14300   14.10700
O    O35     7.28600   17.69200   14.10700
O    O36    10.54900   17.69200    3.72700
O    O37     5.19000    1.63200    8.77500
O    O38    12.64500   16.20300    8.77500
O    O39    12.64500    1.63200    9.06000
O    O40     5.19000   16.20300    9.06000
O    O41     8.77500    5.19000    1.63200
O    O42     8.77500   12.64500   16.20300
O    O43     9.06000   12.64500    1.63200
O    O44     9.06000    5.19000   16.20300
O    O45     1.63200    8.77500    5.19000
O    O46    16.20300    8.77500   12.64500
O    O47     1.63200    9.06000   12.64500
O    O48    16.20300    9.06000    5.19000
O    O49     3.39600   11.14000    0.43900
O    O50    14.43900    6.69500    0.43900
O    O51    14.43900   11.14000   17.39600
O    O52     3.39600    6.69500   17.39600
O    O53     0.43900    3.39600   11.14000
O    O54     0.43900   14.43900    6.69500
O    O55    17.39600   14.43900   11.14000
O    O56    17.39600    3.39600    6.69500
O    O57    11.14000    0.43900    3.39600
O    O58     6.69500    0.43900   14.43900
O    O59    11.14000   17.39600   14.43900
O    O60     6.69500   17.39600    3.39600
O    O61     5.52200   15.61300    8.47900
O    O62    12.31300    2.22200    8.47900
O    O63    12.31300   15.61300    9.35600
O    O64     5.52200    2.22200    9.35600
O    O65     8.47900    5.52200   15.61300
O    O66     8.47900   12.31300    2.22200
O    O67     9.35600   12.31300   15.61300
O    O68     9.35600    5.52200    2.22200
O    O69    15.61300    8.47900    5.52200
O    O70     2.22200    8.47900   12.31300
O    O71    15.61300    9.35600   12.31300
O    O72     2.22200    9.35600    5.52200
O    O73     3.38100    9.04800    2.25300
O    O74    14.45300    8.78700    2.25300
O    O75    14.45300    9.04800   15.58200
O    O76     3.38100    8.78700   15.58200
O    O77     2.25300    3.38100    9.04800
O    O78     2.25300   14.45300    8.78700
O    O79    15.58200   14.45300    9.04800
O    O80    15.58200    3.38100    8.78700
O    O81     9.04800    2.25300    3.38100
O    O82     8.78700    2.25300   14.45300
O    O83     9.04800   15.58200   14.45300
O    O84     8.78700   15.58200    3.38100
O    O85     5.53600   17.70500    6.66500
O    O86    12.29900    0.13000    6.66500
O    O87    12.29900   17.70500   11.17000
O    O88     5.53600    0.13000   11.17000
O    O89     6.66500    5.53600   17.70500
O    O90     6.66500   12.29900    0.13000
O    O91    11.17000   12.29900   17.70500
O    O92    11.17000    5.53600    0.13000
O    O93    17.70500    6.66500    5.53600
O    O94     0.13000    6.66500   12.29900
O    O95    17.70500   11.17000   12.29900
O    O96     0.13000   11.17000    5.53600
O    O97     3.72400    9.34400   16.21900
O    O98    14.11100    8.49100   16.21900
O    O99    14.11100    9.34400    1.61600
O    O100     3.72400    8.49100    1.61600
O    O101    16.21900    3.72400    9.34400
O    O102    16.21900   14.11100    8.49100
O    O103     1.61600   14.11100    9.34400
O    O104     1.61600    3.72400    8.49100
O    O105     9.34400   16.21900    3.72400
O    O106     8.49100   16.21900   14.11100
O    O107     9.34400    1.61600   14.11100
O    O108     8.49100    1.61600    3.72400
O    O109     5.19300   17.40900   10.53300
O    O110    12.64100    0.42600   10.53300
O    O111    12.64100   17.40900    7.30200
O    O112     5.19300    0.42600    7.30200
O    O113    10.53300    5.19300   17.40900
O    O114    10.53300   12.64100    0.42600
O    O115     7.30200   12.64100   17.40900
O    O116     7.30200    5.19300    0.42600
O    O117    17.40900   10.53300    5.19300
O    O118     0.42600   10.53300   12.64100
O    O119    17.40900    7.30200   12.64100
O    O120     0.42600    7.30200    5.19300
C    C121     2.86100   12.29000    0.42800
C    C122    14.97400    5.54500    0.42800
C    C123    14.97400   12.29000   17.40700
C    C124     2.86100    5.54500   17.40700
C    C125     0.42800    2.86100   12.29000
C    C126     0.42800   14.97400    5.54500
C    C127    17.40700   14.97400   12.29000
C    C128    17.40700    2.86100    5.54500
C    C129    12.29000    0.42800    2.86100
C    C130     5.54500    0.42800   14.97400
C    C131    12.29000   17.40700   14.97400
C    C132     5.54500   17.40700    2.86100
C    C133     6.05700   14.46200    8.48900
C    C134    11.77800    3.37300    8.48900
C    C135    11.77800   14.46200    9.34500
C    C136     6.05700    3.37300    9.34500
C    C137     8.48900    6.05700   14.46200
C    C138     8.48900   11.77800    3.37300
C    C139     9.34500   11.77800   14.46200
C    C140     9.34500    6.05700    3.37300
C    C141    14.46200    8.48900    6.05700
C    C142     3.37300    8.48900   11.77800
C    C143    14.46200    9.34500   11.77800
C    C144     3.37300    9.34500    6.05700
C    C145     3.82000   13.47400    0.43300
C    C146    14.01500    4.36100    0.43300
C    C147    14.01500   13.47400   17.40100
C    C148     3.82000    4.36100   17.40100
C    C149     0.43300    3.82000   13.47400
C    C150     0.43300   14.01500    4.36100
C    C151    17.40100   14.01500   13.47400
C    C152    17.40100    3.82000    4.36100
C    C153    13.47400    0.43300    3.82000
C    C154     4.36100    0.43300   14.01500
C    C155    13.47400   17.40100   14.01500
C    C156     4.36100   17.40100    3.82000
C    C157     5.09700   13.27800    8.48400
C    C158    12.73800    4.55700    8.48400
C    C159    12.73800   13.27800    9.35100
C    C160     5.09700    4.55700    9.35100
C    C161     8.48400    5.09700   13.27800
C    C162     8.48400   12.73800    4.55700
C    C163     9.35100   12.73800   13.27800
C    C164     9.35100    5.09700    4.55700
C    C165    13.27800    8.48400    5.09700
C    C166     4.55700    8.48400   12.73800
C    C167    13.27800    9.35100   12.73800
C    C168     4.55700    9.35100    5.09700
H    H169     3.48700   14.34300    0.43500
H    H170    14.34800    3.49200    0.43500
H    H171    14.34800   14.34300   17.40000
H    H172     3.48700    3.49200   17.40000
H    H173     0.43500    3.48700   14.34300
H    H174     0.43500   14.34800    3.49200
H    H175    17.40000   14.34800   14.34300
H    H176    17.40000    3.48700    3.49200
H    H177    14.34300    0.43500    3.48700
H    H178     3.49200    0.43500   14.34800
H    H179    14.34300   17.40000   14.34800
H    H180     3.49200   17.40000    3.48700
H    H181     5.43100   12.40900    8.48200
H    H182    12.40400    5.42500    8.48200
H    H183    12.40400   12.40900    9.35300
H    H184     5.43100    5.42500    9.35300
H    H185     8.48200    5.43100   12.40900
H    H186     8.48200   12.40400    5.42500
H    H187     9.35300   12.40400   12.40900
H    H188     9.35300    5.43100    5.42500
H    H189    12.40900    8.48200    5.43100
H    H190     5.42500    8.48200   12.40400
H    H191    12.40900    9.35300   12.40400
H    H192     5.42500    9.35300    5.43100
C    C193     3.39900    6.06000    0.00000
C    C194    14.43500   11.77500    0.00000
C    C195    14.43500    6.06000    0.00000
C    C196     3.39900   11.77500    0.00000
C    C197    -0.00000    3.39900    6.06000
C    C198    -0.00000   14.43500   11.77500
C    C199    -0.00000   14.43500    6.06000
C    C200    -0.00000    3.39900   11.77500
C    C201     6.06000   -0.00000    3.39900
C    C202    11.77500   -0.00000   14.43500
C    C203     6.06000   -0.00000   14.43500
C    C204    11.77500   -0.00000    3.39900
C    C205     5.51800    2.85700    8.91700
C    C206    12.31700   14.97800    8.91700
C    C207    12.31700    2.85700    8.91700
C    C208     5.51800   14.97800    8.91700
C    C209     8.91700    5.51800    2.85700
C    C210     8.91700   12.31700   14.97800
C    C211     8.91700   12.31700    2.85700
C    C212     8.91700    5.51800   14.97800
C    C213     2.85700    8.91700    5.51800
C    C214    14.97800    8.91700   12.31700
C    C215     2.85700    8.91700   12.31700
C    C216    14.97800    8.91700    5.51800
C    C217     4.57800    5.11000    0.00200
C    C218    13.25700   12.72500    0.00200
C    C219    13.25700    5.11000   17.83300
C    C220     4.57800   12.72500   17.83300
C    C221     0.00200    4.57800    5.11000
C    C222     0.00200   13.25700   12.72500
C    C223    17.83300   13.25700    5.11000
C    C224    17.83300    4.57800   12.72500
C    C225     5.11000    0.00200    4.57800
C    C226    12.72500    0.00200   13.25700
C    C227     5.11000   17.83300   13.25700
C    C228    12.72500   17.83300    4.57800
C    C229     4.33900    3.80800    8.91600
C    C230    13.49600   14.02700    8.91600
C    C231    13.49600    3.80800    8.91900
C    C232     4.33900   14.02700    8.91900
C    C233     8.91600    4.33900    3.80800
C    C234     8.91600   13.49600   14.02700
C    C235     8.91900   13.49600    3.80800
C    C236     8.91900    4.33900   14.02700
C    C237     3.80800    8.91600    4.33900
C    C238    14.02700    8.91600   13.49600
C    C239     3.80800    8.91900   13.49600
C    C240    14.02700    8.91900    4.33900
H    H241     5.45000    5.43200    0.00200
H    H242    12.38400   12.40200    0.00200
H    H243    12.38400    5.43200   17.83300
H    H244     5.45000   12.40200   17.83300
H    H245     0.00200    5.45000    5.43200
H    H246     0.00200   12.38400   12.40200
H    H247    17.83300   12.38400    5.43200
H    H248    17.83300    5.45000   12.40200
H    H249     5.43200    0.00200    5.45000
H    H250    12.40200    0.00200   12.38400
H    H251     5.43200   17.83300   12.38400
H    H252    12.40200   17.83300    5.45000
H    H253     3.46700    3.48500    8.91600
H    H254    14.36800   14.35000    8.91600
H    H255    14.36800    3.48500    8.91900
H    H256     3.46700   14.35000    8.91900
H    H257     8.91600    3.46700    3.48500
H    H258     8.91600   14.36800   14.35000
H    H259     8.91900   14.36800    3.48500
H    H260     8.91900    3.46700   14.35000
H    H261     3.48500    8.91600    3.46700
H    H262    14.35000    8.91600   14.36800
H    H263     3.48500    8.91900   14.36800
H    H264    14.35000    8.91900    3.46700
O    O265     1.36400   10.55300   16.68100
O    O266    16.47000    7.28200   16.68100
O    O267    16.47000   10.55300    1.15400
O    O268     1.36400    7.28200    1.15400
O    O269    16.68100    1.36400   10.55300
O    O270    16.68100   16.47000    7.28200
O    O271     1.15400   16.47000   10.55300
O    O272     1.15400    1.36400    7.28200
O    O273    10.55300   16.68100    1.36400
O    O274     7.28200   16.68100   16.47000
O    O275    10.55300    1.15400   16.47000
O    O276     7.28200    1.15400    1.36400
O    O277     7.55300   16.19900   10.07100
O    O278    10.28200    1.63500   10.07100
O    O279    10.28200   16.19900    7.76300
O    O280     7.55300    1.63500    7.76300
O    O281    10.07100    7.55300   16.19900
O    O282    10.07100   10.28200    1.63500
O    O283     7.76300   10.28200   16.19900
O    O284     7.76300    7.55300    1.63500
O    O285    16.19900   10.07100    7.55300
O    O286     1.63500   10.07100   10.28200
O    O287    16.19900    7.76300   10.28200
O    O288     1.63500    7.76300    7.55300
O    O289     1.06300    7.85400    1.06300
O    O290    16.77200    9.98000    1.06300
O    O291    16.77200    7.85400   16.77200
O    O292     1.06300    9.98000   16.77200
O    O293     1.06300    1.06300    7.85400
O    O294     1.06300   16.77200    9.98000
O    O295    16.77200   16.77200    7.85400
O    O296    16.77200    1.06300    9.98000
O    O297     7.85400    1.06300    1.06300
O    O298     9.98000    1.06300   16.77200
O    O299     7.85400   16.77200   16.77200
O    O300     9.98000   16.77200    1.06300
O    O301     7.85400    1.06300    7.85400
O    O302     9.98000   16.77200    7.85400
O    O303     9.98000    1.06300    9.98000
O    O304     7.85400   16.77200    9.98000
O    O305     7.85400    7.85400    1.06300
O    O306     7.85400    9.98000   16.77200
O    O307     9.98000    9.98000    1.06300
O    O308     9.98000    7.85400   16.77200
O    O309     1.06300    7.85400    7.85400
O    O310    16.77200    7.85400    9.98000
O    O311     1.06300    9.98000    9.98000
O    O312    16.77200    9.98000    7.85400
O    O313     1.06300   10.14100   16.95000
O    O314    16.77200    7.69400   16.95000
O    O315    16.77200   10.14100    0.88500
O    O316     1.06300    7.69400    0.88500
O    O317    16.95000    1.06300   10.14100
O    O318    16.95000   16.77200    7.69400
O    O319     0.88500   16.77200   10.14100
O    O320     0.88500    1.06300    7.69400
O    O321    10.14100   16.95000    1.06300
O    O322     7.69400   16.95000   16.77200
O    O323    10.14100    0.88500   16.77200
O    O324     7.69400    0.88500    1.06300
O    O325     7.85400   16.61100    9.80200
O    O326     9.98000    1.22300    9.80200
O    O327     9.98000   16.61100    8.03300
O    O328     7.85400    1.22300    8.03300
O    O329     9.80200    7.85400   16.61100
O    O330     9.80200    9.98000    1.22300
O    O331     8.03300    9.98000   16.61100
O    O332     8.03300    7.85400    1.22300
O    O333    16.61100    9.80200    7.85400
O    O334     1.22300    9.80200    9.98000
O    O335    16.61100    8.03300    9.98000
O    O336     1.22300    8.03300    7.85400
O    O337     1.40000    7.51700    1.40000
O    O338    16.43500   10.31700    1.40000
O    O339    16.43500    7.51700   16.43500
O    O340     1.40000   10.31700   16.43500
O    O341     1.40000    1.40000    7.51700
O    O342     1.40000   16.43500   10.31700
O    O343    16.43500   16.43500    7.51700
O    O344    16.43500    1.40000   10.31700
O    O345     7.51700    1.40000    1.40000
O    O346    10.31700    1.40000   16.43500
O    O347     7.51700   16.43500   16.43500
O    O348    10.31700   16.43500    1.40000
O    O349     7.51700    1.40000    7.51700
O    O350    10.31700   16.43500    7.51700
O    O351    10.31700    1.40000   10.31700
O    O352     7.51700   16.43500   10.31700
O    O353     7.51700    7.51700    1.40000
O    O354     7.51700   10.31700   16.43500
O    O355    10.31700   10.31700    1.40000
O    O356    10.31700    7.51700   16.43500
O    O357     1.40000    7.51700    7.51700
O    O358    16.43500    7.51700   10.31700
O    O359     1.40000   10.31700   10.31700
O    O360    16.43500   10.31700    7.51700
_end
