data_functionalizedCrystal
_audit_creation_method	'EQeq! by Chris Wilmer'
_symmetry_space_group_name_H-M	'P1'
_symmetry_Int_Tables_number	1
_symmetry_cell_setting	triclinic
loop_
_symmetry_equiv_pos_as_xyz
  x,y,z
_cell_length_a	32.9766
_cell_length_b	32.9766
_cell_length_c	32.9766
_cell_angle_alpha	60
_cell_angle_beta	60
_cell_angle_gamma	60
loop_
_atom_site_label
_atom_site_type_symbol
_atom_site_fract_x
_atom_site_fract_y
_atom_site_fract_z
_atom_site_charge
Cu	Cu	0.95973	0.5	0.04027	0.901
Cu	Cu	0.5	0.95973	0.5	0.901
Cu	Cu	0.04027	0.5	0.95973	0.901
Cu	Cu	0.5	0.04027	0.5	0.901
Cu	Cu	0.95973	0.04027	0.5	0.901
Cu	Cu	0.5	0.5	0.04027	0.901
Cu	Cu	0.04027	0.95973	0.5	0.9
Cu	Cu	0.5	0.5	0.95973	0.9
Cu	Cu	0.95973	0.5	0.5	0.9
Cu	Cu	0.5	0.04027	0.95973	0.9
Cu	Cu	0.04027	0.5	0.5	0.9
Cu	Cu	0.5	0.95973	0.04027	0.9
H 	H 	0.1267	0.5239	0.0039	0.041
H 	H 	0.1657	0.5277	0.0439	0.07
H 	H 	0.5239	0.1267	0.3455	0.041
H 	H 	0.5277	0.1657	0.2627	0.07
H 	H 	0.0039	0.3455	0.1267	0.041
H 	H 	0.0439	0.2627	0.1657	0.07
H 	H 	0.3455	0.0039	0.5239	0.041
H 	H 	0.2627	0.0439	0.5277	0.07
H 	H 	0.1267	0.0039	0.3455	0.041
H 	H 	0.1657	0.0439	0.2627	0.07
H 	H 	0.5239	0.3455	0.0039	0.041
H 	H 	0.5277	0.2627	0.0439	0.07
H 	H 	0.0039	0.1267	0.5239	0.041
H 	H 	0.0439	0.1657	0.5277	0.07
H 	H 	0.3455	0.5239	0.1267	0.041
H 	H 	0.2627	0.5277	0.1657	0.07
H 	H 	0.1267	0.3455	0.5239	0.041
H 	H 	0.1657	0.2627	0.5277	0.07
H 	H 	0.5239	0.0039	0.1267	0.041
H 	H 	0.5277	0.0439	0.1657	0.07
H 	H 	0.0039	0.5239	0.3455	0.041
H 	H 	0.0439	0.5277	0.2627	0.07
H 	H 	0.3455	0.1267	0.0039	0.041
H 	H 	0.2627	0.1657	0.0439	0.07
H 	H 	0.4761	0.8733	0.9961	0.041
H 	H 	0.4723	0.8343	0.9561	0.07
H 	H 	0.8733	0.4761	0.6545	0.041
H 	H 	0.8343	0.4723	0.7373	0.07
H 	H 	0.6545	0.9961	0.8733	0.041
H 	H 	0.7373	0.9561	0.8343	0.07
H 	H 	0.9961	0.6545	0.4761	0.041
H 	H 	0.9561	0.7373	0.4723	0.07
H 	H 	0.9961	0.8733	0.6545	0.041
H 	H 	0.9561	0.8343	0.7373	0.07
H 	H 	0.6545	0.4761	0.9961	0.041
H 	H 	0.7373	0.4723	0.9561	0.07
H 	H 	0.8733	0.9961	0.4761	0.041
H 	H 	0.8343	0.9561	0.4723	0.07
H 	H 	0.4761	0.6545	0.8733	0.041
H 	H 	0.4723	0.7373	0.8343	0.07
H 	H 	0.6545	0.8733	0.4761	0.041
H 	H 	0.7373	0.8343	0.4723	0.07
H 	H 	0.9961	0.4761	0.8733	0.041
H 	H 	0.9561	0.4723	0.8343	0.07
H 	H 	0.4761	0.9961	0.6545	0.041
H 	H 	0.4723	0.9561	0.7373	0.07
H 	H 	0.8733	0.6545	0.9961	0.041
H 	H 	0.8343	0.7373	0.9561	0.07
H 	H 	0.8733	0.4761	0.9961	0.041
H 	H 	0.8343	0.4723	0.9561	0.07
H 	H 	0.4761	0.8733	0.6545	0.041
H 	H 	0.4723	0.8343	0.7373	0.07
H 	H 	0.9961	0.6545	0.8733	0.041
H 	H 	0.9561	0.7373	0.8343	0.07
H 	H 	0.6545	0.9961	0.4761	0.041
H 	H 	0.7373	0.9561	0.4723	0.07
H 	H 	0.8733	0.9961	0.6545	0.041
H 	H 	0.8343	0.9561	0.7373	0.07
H 	H 	0.4761	0.6545	0.9961	0.041
H 	H 	0.4723	0.7373	0.9561	0.07
H 	H 	0.9961	0.8733	0.4761	0.041
H 	H 	0.9561	0.8343	0.4723	0.07
H 	H 	0.6545	0.4761	0.8733	0.041
H 	H 	0.7373	0.4723	0.8343	0.07
H 	H 	0.8733	0.6545	0.4761	0.041
H 	H 	0.8343	0.7373	0.4723	0.07
H 	H 	0.4761	0.9961	0.8733	0.041
H 	H 	0.4723	0.9561	0.8343	0.07
H 	H 	0.9961	0.4761	0.6545	0.041
H 	H 	0.9561	0.4723	0.7373	0.07
H 	H 	0.6545	0.8733	0.9961	0.041
H 	H 	0.7373	0.8343	0.9561	0.07
H 	H 	0.5239	0.1267	0.0039	0.041
H 	H 	0.5277	0.1657	0.0439	0.07
H 	H 	0.1267	0.5239	0.3455	0.041
H 	H 	0.1657	0.5277	0.2627	0.07
H 	H 	0.3455	0.0039	0.1267	0.041
H 	H 	0.2627	0.0439	0.1657	0.07
H 	H 	0.0039	0.3455	0.5239	0.041
H 	H 	0.0439	0.2627	0.5277	0.07
H 	H 	0.0039	0.1267	0.3455	0.041
H 	H 	0.0439	0.1657	0.2627	0.07
H 	H 	0.3455	0.5239	0.0039	0.041
H 	H 	0.2627	0.5277	0.0439	0.07
H 	H 	0.1267	0.0039	0.5239	0.041
H 	H 	0.1657	0.0439	0.5277	0.07
H 	H 	0.5239	0.3455	0.1267	0.041
H 	H 	0.5277	0.2627	0.1657	0.07
H 	H 	0.3455	0.1267	0.5239	0.041
H 	H 	0.2627	0.1657	0.5277	0.07
H 	H 	0.0039	0.5239	0.1267	0.041
H 	H 	0.0439	0.5277	0.1657	0.07
H 	H 	0.5239	0.0039	0.3455	0.041
H 	H 	0.5277	0.0439	0.2627	0.07
H 	H 	0.1267	0.3455	0.0039	0.041
H 	H 	0.1657	0.2627	0.0439	0.07
C 	C 	0.11021	0.52363	0.03693	0.023
C 	C 	0.13315	0.52671	0.06057	-0.085
C 	C 	0.52363	0.11021	0.32923	0.023
C 	C 	0.52671	0.13315	0.27957	-0.085
C 	C 	0.03693	0.32923	0.11021	0.022
C 	C 	0.06057	0.27957	0.13315	-0.085
C 	C 	0.32923	0.03693	0.52363	0.023
C 	C 	0.27957	0.06057	0.52671	-0.085
C 	C 	0.11021	0.03693	0.32923	0.022
C 	C 	0.13315	0.06057	0.27957	-0.085
C 	C 	0.52363	0.32923	0.03693	0.023
C 	C 	0.52671	0.27957	0.06057	-0.085
C 	C 	0.03693	0.11021	0.52363	0.023
C 	C 	0.06057	0.13315	0.52671	-0.085
C 	C 	0.32923	0.52363	0.11021	0.023
C 	C 	0.27957	0.52671	0.13315	-0.085
C 	C 	0.11021	0.32923	0.52363	0.023
C 	C 	0.13315	0.27957	0.52671	-0.085
C 	C 	0.52363	0.03693	0.11021	0.023
C 	C 	0.52671	0.06057	0.13315	-0.085
C 	C 	0.03693	0.52363	0.32923	0.023
C 	C 	0.06057	0.52671	0.27957	-0.085
C 	C 	0.32923	0.11021	0.03693	0.022
C 	C 	0.27957	0.13315	0.06057	-0.085
C 	C 	0.47637	0.88979	0.96307	0.023
C 	C 	0.47329	0.86685	0.93943	-0.085
C 	C 	0.88979	0.47637	0.67077	0.023
C 	C 	0.86685	0.47329	0.72043	-0.085
C 	C 	0.67077	0.96307	0.88979	0.022
C 	C 	0.72043	0.93943	0.86685	-0.085
C 	C 	0.96307	0.67077	0.47637	0.023
C 	C 	0.93943	0.72043	0.47329	-0.085
C 	C 	0.96307	0.88979	0.67077	0.022
C 	C 	0.93943	0.86685	0.72043	-0.085
C 	C 	0.67077	0.47637	0.96307	0.023
C 	C 	0.72043	0.47329	0.93943	-0.085
C 	C 	0.88979	0.96307	0.47637	0.023
C 	C 	0.86685	0.93943	0.47329	-0.085
C 	C 	0.47637	0.67077	0.88979	0.023
C 	C 	0.47329	0.72043	0.86685	-0.085
C 	C 	0.67077	0.88979	0.47637	0.023
C 	C 	0.72043	0.86685	0.47329	-0.085
C 	C 	0.96307	0.47637	0.88979	0.023
C 	C 	0.93943	0.47329	0.86685	-0.085
C 	C 	0.47637	0.96307	0.67077	0.023
C 	C 	0.47329	0.93943	0.72043	-0.085
C 	C 	0.88979	0.67077	0.96307	0.022
C 	C 	0.86685	0.72043	0.93943	-0.085
C 	C 	0.88979	0.47637	0.96307	0.023
C 	C 	0.86685	0.47329	0.93943	-0.085
C 	C 	0.47637	0.88979	0.67077	0.023
C 	C 	0.47329	0.86685	0.72043	-0.085
C 	C 	0.96307	0.67077	0.88979	0.022
C 	C 	0.93943	0.72043	0.86685	-0.085
C 	C 	0.67077	0.96307	0.47637	0.023
C 	C 	0.72043	0.93943	0.47329	-0.085
C 	C 	0.88979	0.96307	0.67077	0.022
C 	C 	0.86685	0.93943	0.72043	-0.085
C 	C 	0.47637	0.67077	0.96307	0.023
C 	C 	0.47329	0.72043	0.93943	-0.085
C 	C 	0.96307	0.88979	0.47637	0.023
C 	C 	0.93943	0.86685	0.47329	-0.085
C 	C 	0.67077	0.47637	0.88979	0.023
C 	C 	0.72043	0.47329	0.86685	-0.085
C 	C 	0.88979	0.67077	0.47637	0.023
C 	C 	0.86685	0.72043	0.47329	-0.085
C 	C 	0.47637	0.96307	0.88979	0.023
C 	C 	0.47329	0.93943	0.86685	-0.085
C 	C 	0.96307	0.47637	0.67077	0.023
C 	C 	0.93943	0.47329	0.72043	-0.085
C 	C 	0.67077	0.88979	0.96307	0.022
C 	C 	0.72043	0.86685	0.93943	-0.085
C 	C 	0.52363	0.11021	0.03693	0.023
C 	C 	0.52671	0.13315	0.06057	-0.085
C 	C 	0.11021	0.52363	0.32923	0.023
C 	C 	0.13315	0.52671	0.27957	-0.085
C 	C 	0.32923	0.03693	0.11021	0.022
C 	C 	0.27957	0.06057	0.13315	-0.085
C 	C 	0.03693	0.32923	0.52363	0.023
C 	C 	0.06057	0.27957	0.52671	-0.085
C 	C 	0.03693	0.11021	0.32923	0.022
C 	C 	0.06057	0.13315	0.27957	-0.085
C 	C 	0.32923	0.52363	0.03693	0.023
C 	C 	0.27957	0.52671	0.06057	-0.085
C 	C 	0.11021	0.03693	0.52363	0.023
C 	C 	0.13315	0.06057	0.52671	-0.085
C 	C 	0.52363	0.32923	0.11021	0.023
C 	C 	0.52671	0.27957	0.13315	-0.085
C 	C 	0.32923	0.11021	0.52363	0.023
C 	C 	0.27957	0.13315	0.52671	-0.085
C 	C 	0.03693	0.52363	0.11021	0.023
C 	C 	0.06057	0.52671	0.13315	-0.085
C 	C 	0.52363	0.03693	0.32923	0.023
C 	C 	0.52671	0.06057	0.27957	-0.085
C 	C 	0.11021	0.32923	0.03693	0.022
C 	C 	0.13315	0.27957	0.06057	-0.085
C 	C 	0.0382	0.51314	0.0382	0.382
C 	C 	0.06255	0.51997	0.06255	-0.09
C 	C 	0.10834	0.52846	0.10834	0.03
C 	C 	0.13362	0.5318	0.13362	0.115
C 	C 	0.51314	0.0382	0.41046	0.384
C 	C 	0.51997	0.06255	0.35493	-0.09
C 	C 	0.52846	0.10834	0.25486	0.031
C 	C 	0.5318	0.13362	0.20096	0.114
C 	C 	0.0382	0.41046	0.0382	0.381
C 	C 	0.06255	0.35493	0.06255	-0.09
C 	C 	0.10834	0.25486	0.10834	0.03
C 	C 	0.13362	0.20096	0.13362	0.114
C 	C 	0.41046	0.0382	0.51314	0.384
C 	C 	0.35493	0.06255	0.51997	-0.09
C 	C 	0.25486	0.10834	0.52846	0.031
C 	C 	0.20096	0.13362	0.5318	0.114
C 	C 	0.0382	0.0382	0.41046	0.381
C 	C 	0.06255	0.06255	0.35493	-0.09
C 	C 	0.10834	0.10834	0.25486	0.03
C 	C 	0.13362	0.13362	0.20096	0.114
C 	C 	0.51314	0.41046	0.0382	0.384
C 	C 	0.51997	0.35493	0.06255	-0.09
C 	C 	0.52846	0.25486	0.10834	0.031
C 	C 	0.5318	0.20096	0.13362	0.114
C 	C 	0.0382	0.0382	0.51314	0.382
C 	C 	0.06255	0.06255	0.51997	-0.09
C 	C 	0.10834	0.10834	0.52846	0.03
C 	C 	0.13362	0.13362	0.5318	0.115
C 	C 	0.41046	0.51314	0.0382	0.384
C 	C 	0.35493	0.51997	0.06255	-0.09
C 	C 	0.25486	0.52846	0.10834	0.031
C 	C 	0.20096	0.5318	0.13362	0.114
C 	C 	0.0382	0.41046	0.51314	0.384
C 	C 	0.06255	0.35493	0.51997	-0.09
C 	C 	0.10834	0.25486	0.52846	0.031
C 	C 	0.13362	0.20096	0.5318	0.114
C 	C 	0.51314	0.0382	0.0382	0.382
C 	C 	0.51997	0.06255	0.06255	-0.09
C 	C 	0.52846	0.10834	0.10834	0.03
C 	C 	0.5318	0.13362	0.13362	0.115
C 	C 	0.0382	0.51314	0.41046	0.384
C 	C 	0.06255	0.51997	0.35493	-0.09
C 	C 	0.10834	0.52846	0.25486	0.031
C 	C 	0.13362	0.5318	0.20096	0.114
C 	C 	0.41046	0.0382	0.0382	0.381
C 	C 	0.35493	0.06255	0.06255	-0.09
C 	C 	0.25486	0.10834	0.10834	0.03
C 	C 	0.20096	0.13362	0.13362	0.114
C 	C 	0.48686	0.9618	0.9618	0.382
C 	C 	0.48003	0.93745	0.93745	-0.09
C 	C 	0.47154	0.89166	0.89166	0.03
C 	C 	0.4682	0.86638	0.86638	0.115
C 	C 	0.9618	0.48686	0.58954	0.384
C 	C 	0.93745	0.48003	0.64507	-0.09
C 	C 	0.89166	0.47154	0.74514	0.031
C 	C 	0.86638	0.4682	0.79904	0.114
C 	C 	0.58954	0.9618	0.9618	0.381
C 	C 	0.64507	0.93745	0.93745	-0.09
C 	C 	0.74514	0.89166	0.89166	0.03
C 	C 	0.79904	0.86638	0.86638	0.114
C 	C 	0.9618	0.58954	0.48686	0.384
C 	C 	0.93745	0.64507	0.48003	-0.09
C 	C 	0.89166	0.74514	0.47154	0.031
C 	C 	0.86638	0.79904	0.4682	0.114
C 	C 	0.9618	0.9618	0.58954	0.381
C 	C 	0.93745	0.93745	0.64507	-0.09
C 	C 	0.89166	0.89166	0.74514	0.03
C 	C 	0.86638	0.86638	0.79904	0.114
C 	C 	0.58954	0.48686	0.9618	0.384
C 	C 	0.64507	0.48003	0.93745	-0.09
C 	C 	0.74514	0.47154	0.89166	0.031
C 	C 	0.79904	0.4682	0.86638	0.114
C 	C 	0.9618	0.9618	0.48686	0.382
C 	C 	0.93745	0.93745	0.48003	-0.09
C 	C 	0.89166	0.89166	0.47154	0.03
C 	C 	0.86638	0.86638	0.4682	0.115
C 	C 	0.48686	0.58954	0.9618	0.384
C 	C 	0.48003	0.64507	0.93745	-0.09
C 	C 	0.47154	0.74514	0.89166	0.031
C 	C 	0.4682	0.79904	0.86638	0.114
C 	C 	0.58954	0.9618	0.48686	0.384
C 	C 	0.64507	0.93745	0.48003	-0.09
C 	C 	0.74514	0.89166	0.47154	0.031
C 	C 	0.79904	0.86638	0.4682	0.114
C 	C 	0.9618	0.48686	0.9618	0.382
C 	C 	0.93745	0.48003	0.93745	-0.09
C 	C 	0.89166	0.47154	0.89166	0.03
C 	C 	0.86638	0.4682	0.86638	0.115
C 	C 	0.48686	0.9618	0.58954	0.384
C 	C 	0.48003	0.93745	0.64507	-0.09
C 	C 	0.47154	0.89166	0.74514	0.031
C 	C 	0.4682	0.86638	0.79904	0.114
C 	C 	0.9618	0.58954	0.9618	0.381
C 	C 	0.93745	0.64507	0.93745	-0.09
C 	C 	0.89166	0.74514	0.89166	0.03
C 	C 	0.86638	0.79904	0.86638	0.114
N 	N 	0.18	0.53144	0.10856	-0.145
N 	N 	0.53144	0.18	0.18	-0.145
N 	N 	0.10856	0.18	0.18	-0.146
N 	N 	0.18	0.10856	0.53144	-0.145
N 	N 	0.18	0.10856	0.18	-0.146
N 	N 	0.53144	0.18	0.10856	-0.145
N 	N 	0.10856	0.18	0.53144	-0.145
N 	N 	0.18	0.53144	0.18	-0.145
N 	N 	0.18	0.18	0.53144	-0.145
N 	N 	0.53144	0.10856	0.18	-0.145
N 	N 	0.10856	0.53144	0.18	-0.145
N 	N 	0.18	0.18	0.10856	-0.146
N 	N 	0.46856	0.82	0.89144	-0.145
N 	N 	0.82	0.46856	0.82	-0.145
N 	N 	0.82	0.89144	0.82	-0.146
N 	N 	0.89144	0.82	0.46856	-0.145
N 	N 	0.89144	0.82	0.82	-0.146
N 	N 	0.82	0.46856	0.89144	-0.145
N 	N 	0.82	0.89144	0.46856	-0.145
N 	N 	0.46856	0.82	0.82	-0.145
N 	N 	0.82	0.82	0.46856	-0.145
N 	N 	0.89144	0.46856	0.82	-0.145
N 	N 	0.46856	0.89144	0.82	-0.145
N 	N 	0.82	0.82	0.89144	-0.146
O 	O 	0.99556	0.51294	0.06358	-0.419
O 	O 	0.51294	0.99556	0.42792	-0.421
O 	O 	0.06358	0.42792	0.99556	-0.419
O 	O 	0.42792	0.06358	0.51294	-0.421
O 	O 	0.99556	0.06358	0.42792	-0.419
O 	O 	0.51294	0.42792	0.06358	-0.421
O 	O 	0.06358	0.99556	0.51294	-0.419
O 	O 	0.42792	0.51294	0.99556	-0.421
O 	O 	0.99556	0.42792	0.51294	-0.421
O 	O 	0.51294	0.06358	0.99556	-0.419
O 	O 	0.06358	0.51294	0.42792	-0.421
O 	O 	0.42792	0.99556	0.06358	-0.419
O 	O 	0.48706	0.00444	0.93642	-0.419
O 	O 	0.00444	0.48706	0.57208	-0.421
O 	O 	0.57208	0.93642	0.00444	-0.419
O 	O 	0.93642	0.57208	0.48706	-0.421
O 	O 	0.93642	0.00444	0.57208	-0.419
O 	O 	0.57208	0.48706	0.93642	-0.421
O 	O 	0.00444	0.93642	0.48706	-0.419
O 	O 	0.48706	0.57208	0.00444	-0.421
O 	O 	0.57208	0.00444	0.48706	-0.421
O 	O 	0.93642	0.48706	0.00444	-0.419
O 	O 	0.48706	0.93642	0.57208	-0.421
O 	O 	0.00444	0.57208	0.93642	-0.419
O 	O 	0.00444	0.48706	0.93642	-0.419
O 	O 	0.48706	0.00444	0.57208	-0.421
O 	O 	0.93642	0.57208	0.00444	-0.419
O 	O 	0.57208	0.93642	0.48706	-0.421
O 	O 	0.00444	0.93642	0.57208	-0.419
O 	O 	0.48706	0.57208	0.93642	-0.421
O 	O 	0.93642	0.00444	0.48706	-0.419
O 	O 	0.57208	0.48706	0.00444	-0.421
O 	O 	0.00444	0.57208	0.48706	-0.421
O 	O 	0.48706	0.93642	0.00444	-0.419
O 	O 	0.93642	0.48706	0.57208	-0.421
O 	O 	0.57208	0.00444	0.93642	-0.419
O 	O 	0.51294	0.99556	0.06358	-0.419
O 	O 	0.99556	0.51294	0.42792	-0.421
O 	O 	0.42792	0.06358	0.99556	-0.419
O 	O 	0.06358	0.42792	0.51294	-0.421
O 	O 	0.06358	0.99556	0.42792	-0.419
O 	O 	0.42792	0.51294	0.06358	-0.421
O 	O 	0.99556	0.06358	0.51294	-0.419
O 	O 	0.51294	0.42792	0.99556	-0.421
O 	O 	0.42792	0.99556	0.51294	-0.421
O 	O 	0.06358	0.51294	0.99556	-0.419
O 	O 	0.51294	0.06358	0.42792	-0.421
O 	O 	0.99556	0.42792	0.06358	-0.419
_end
