data_functionalizedCrystal
_audit_creation_method	'EQeq! by Chris Wilmer'
_symmetry_space_group_name_H-M	'P1'
_symmetry_Int_Tables_number	1
_symmetry_cell_setting	triclinic
loop_
_symmetry_equiv_pos_as_xyz
  x,y,z
_cell_length_a	37.4717
_cell_length_b	37.4717
_cell_length_c	37.4717
_cell_angle_alpha	60
_cell_angle_beta	60
_cell_angle_gamma	60
loop_
_atom_site_label
_atom_site_type_symbol
_atom_site_fract_x
_atom_site_fract_y
_atom_site_fract_z
_atom_site_charge
Cu	Cu	0.5	0.03549	0.96451	0.903
Cu	Cu	0.03549	0.5	0.5	0.903
Cu	Cu	0.96451	0.5	0.5	0.903
Cu	Cu	0.5	0.96451	0.03549	0.903
Cu	Cu	0.5	0.96451	0.5	0.903
Cu	Cu	0.03549	0.5	0.96451	0.903
Cu	Cu	0.96451	0.5	0.03549	0.903
Cu	Cu	0.5	0.03549	0.5	0.903
Cu	Cu	0.5	0.5	0.03549	0.903
Cu	Cu	0.03549	0.96451	0.5	0.903
Cu	Cu	0.96451	0.03549	0.5	0.903
Cu	Cu	0.5	0.5	0.96451	0.903
H 	H 	0.4775	0.9951	0.8907	0.034
H 	H 	0.4723	0.9629	0.8555	0.084
H 	H 	0.9951	0.4775	0.6367	0.034
H 	H 	0.9629	0.4723	0.7093	0.084
H 	H 	0.8907	0.6367	0.4775	0.034
H 	H 	0.8555	0.7093	0.4723	0.084
H 	H 	0.6367	0.8907	0.9951	0.034
H 	H 	0.7093	0.8555	0.9629	0.084
H 	H 	0.4775	0.8907	0.6367	0.034
H 	H 	0.4723	0.8555	0.7093	0.084
H 	H 	0.9951	0.6367	0.8907	0.034
H 	H 	0.9629	0.7093	0.8555	0.084
H 	H 	0.8907	0.4775	0.9951	0.034
H 	H 	0.8555	0.4723	0.9629	0.084
H 	H 	0.6367	0.9951	0.4775	0.034
H 	H 	0.7093	0.9629	0.4723	0.084
H 	H 	0.4775	0.6367	0.9951	0.034
H 	H 	0.4723	0.7093	0.9629	0.084
H 	H 	0.9951	0.8907	0.4775	0.034
H 	H 	0.9629	0.8555	0.4723	0.084
H 	H 	0.8907	0.9951	0.6367	0.034
H 	H 	0.8555	0.9629	0.7093	0.084
H 	H 	0.6367	0.4775	0.8907	0.034
H 	H 	0.7093	0.4723	0.8555	0.084
H 	H 	0.0049	0.5225	0.1093	0.034
H 	H 	0.0371	0.5277	0.1445	0.084
H 	H 	0.5225	0.0049	0.3633	0.034
H 	H 	0.5277	0.0371	0.2907	0.084
H 	H 	0.3633	0.1093	0.5225	0.034
H 	H 	0.2907	0.1445	0.5277	0.084
H 	H 	0.1093	0.3633	0.0049	0.034
H 	H 	0.1445	0.2907	0.0371	0.084
H 	H 	0.1093	0.5225	0.3633	0.034
H 	H 	0.1445	0.5277	0.2907	0.084
H 	H 	0.3633	0.0049	0.1093	0.034
H 	H 	0.2907	0.0371	0.1445	0.084
H 	H 	0.5225	0.1093	0.0049	0.034
H 	H 	0.5277	0.1445	0.0371	0.084
H 	H 	0.0049	0.3633	0.5225	0.034
H 	H 	0.0371	0.2907	0.5277	0.084
H 	H 	0.3633	0.5225	0.0049	0.034
H 	H 	0.2907	0.5277	0.0371	0.084
H 	H 	0.1093	0.0049	0.5225	0.034
H 	H 	0.1445	0.0371	0.5277	0.084
H 	H 	0.0049	0.1093	0.3633	0.034
H 	H 	0.0371	0.1445	0.2907	0.084
H 	H 	0.5225	0.3633	0.1093	0.034
H 	H 	0.5277	0.2907	0.1445	0.084
H 	H 	0.5225	0.0049	0.1093	0.034
H 	H 	0.5277	0.0371	0.1445	0.084
H 	H 	0.0049	0.5225	0.3633	0.034
H 	H 	0.0371	0.5277	0.2907	0.084
H 	H 	0.1093	0.3633	0.5225	0.034
H 	H 	0.1445	0.2907	0.5277	0.084
H 	H 	0.3633	0.1093	0.0049	0.034
H 	H 	0.2907	0.1445	0.0371	0.084
H 	H 	0.5225	0.1093	0.3633	0.034
H 	H 	0.5277	0.1445	0.2907	0.084
H 	H 	0.0049	0.3633	0.1093	0.034
H 	H 	0.0371	0.2907	0.1445	0.084
H 	H 	0.1093	0.5225	0.0049	0.034
H 	H 	0.1445	0.5277	0.0371	0.084
H 	H 	0.3633	0.0049	0.5225	0.034
H 	H 	0.2907	0.0371	0.5277	0.084
H 	H 	0.5225	0.3633	0.0049	0.034
H 	H 	0.5277	0.2907	0.0371	0.084
H 	H 	0.0049	0.1093	0.5225	0.034
H 	H 	0.0371	0.1445	0.5277	0.084
H 	H 	0.1093	0.0049	0.3633	0.034
H 	H 	0.1445	0.0371	0.2907	0.084
H 	H 	0.3633	0.5225	0.1093	0.034
H 	H 	0.2907	0.5277	0.1445	0.084
H 	H 	0.9951	0.4775	0.8907	0.034
H 	H 	0.9629	0.4723	0.8555	0.084
H 	H 	0.4775	0.9951	0.6367	0.034
H 	H 	0.4723	0.9629	0.7093	0.084
H 	H 	0.6367	0.8907	0.4775	0.034
H 	H 	0.7093	0.8555	0.4723	0.084
H 	H 	0.8907	0.6367	0.9951	0.034
H 	H 	0.8555	0.7093	0.9629	0.084
H 	H 	0.8907	0.4775	0.6367	0.034
H 	H 	0.8555	0.4723	0.7093	0.084
H 	H 	0.6367	0.9951	0.8907	0.034
H 	H 	0.7093	0.9629	0.8555	0.084
H 	H 	0.4775	0.8907	0.9951	0.034
H 	H 	0.4723	0.8555	0.9629	0.084
H 	H 	0.9951	0.6367	0.4775	0.034
H 	H 	0.9629	0.7093	0.4723	0.084
H 	H 	0.6367	0.4775	0.9951	0.034
H 	H 	0.7093	0.4723	0.9629	0.084
H 	H 	0.8907	0.9951	0.4775	0.034
H 	H 	0.8555	0.9629	0.4723	0.084
H 	H 	0.9951	0.8907	0.6367	0.034
H 	H 	0.9629	0.8555	0.7093	0.084
H 	H 	0.4775	0.6367	0.8907	0.034
H 	H 	0.4723	0.7093	0.8555	0.084
C 	C 	0.4769	0.9667	0.905	0.048
C 	C 	0.47327	0.94779	0.88379	-0.106
C 	C 	0.9667	0.4769	0.6514	0.049
C 	C 	0.94779	0.47327	0.69515	-0.106
C 	C 	0.905	0.6514	0.4769	0.049
C 	C 	0.88379	0.69515	0.47327	-0.106
C 	C 	0.6514	0.905	0.9667	0.048
C 	C 	0.69515	0.88379	0.94779	-0.106
C 	C 	0.4769	0.905	0.6514	0.049
C 	C 	0.47327	0.88379	0.69515	-0.106
C 	C 	0.9667	0.6514	0.905	0.048
C 	C 	0.94779	0.69515	0.88379	-0.106
C 	C 	0.905	0.4769	0.9667	0.048
C 	C 	0.88379	0.47327	0.94779	-0.106
C 	C 	0.6514	0.9667	0.4769	0.049
C 	C 	0.69515	0.94779	0.47327	-0.106
C 	C 	0.4769	0.6514	0.9667	0.049
C 	C 	0.47327	0.69515	0.94779	-0.106
C 	C 	0.9667	0.905	0.4769	0.048
C 	C 	0.94779	0.88379	0.47327	-0.106
C 	C 	0.905	0.9667	0.6514	0.048
C 	C 	0.88379	0.94779	0.69515	-0.106
C 	C 	0.6514	0.4769	0.905	0.049
C 	C 	0.69515	0.47327	0.88379	-0.106
C 	C 	0.0333	0.5231	0.095	0.048
C 	C 	0.05221	0.52673	0.11621	-0.106
C 	C 	0.5231	0.0333	0.3486	0.049
C 	C 	0.52673	0.05221	0.30485	-0.106
C 	C 	0.3486	0.095	0.5231	0.049
C 	C 	0.30485	0.11621	0.52673	-0.106
C 	C 	0.095	0.3486	0.0333	0.048
C 	C 	0.11621	0.30485	0.05221	-0.106
C 	C 	0.095	0.5231	0.3486	0.049
C 	C 	0.11621	0.52673	0.30485	-0.106
C 	C 	0.3486	0.0333	0.095	0.048
C 	C 	0.30485	0.05221	0.11621	-0.106
C 	C 	0.5231	0.095	0.0333	0.048
C 	C 	0.52673	0.11621	0.05221	-0.106
C 	C 	0.0333	0.3486	0.5231	0.049
C 	C 	0.05221	0.30485	0.52673	-0.106
C 	C 	0.3486	0.5231	0.0333	0.049
C 	C 	0.30485	0.52673	0.05221	-0.106
C 	C 	0.095	0.0333	0.5231	0.048
C 	C 	0.11621	0.05221	0.52673	-0.106
C 	C 	0.0333	0.095	0.3486	0.048
C 	C 	0.05221	0.11621	0.30485	-0.106
C 	C 	0.5231	0.3486	0.095	0.049
C 	C 	0.52673	0.30485	0.11621	-0.106
C 	C 	0.5231	0.0333	0.095	0.048
C 	C 	0.52673	0.05221	0.11621	-0.106
C 	C 	0.0333	0.5231	0.3486	0.049
C 	C 	0.05221	0.52673	0.30485	-0.106
C 	C 	0.095	0.3486	0.5231	0.049
C 	C 	0.11621	0.30485	0.52673	-0.106
C 	C 	0.3486	0.095	0.0333	0.048
C 	C 	0.30485	0.11621	0.05221	-0.106
C 	C 	0.5231	0.095	0.3486	0.049
C 	C 	0.52673	0.11621	0.30485	-0.106
C 	C 	0.0333	0.3486	0.095	0.048
C 	C 	0.05221	0.30485	0.11621	-0.106
C 	C 	0.095	0.5231	0.0333	0.048
C 	C 	0.11621	0.52673	0.05221	-0.106
C 	C 	0.3486	0.0333	0.5231	0.049
C 	C 	0.30485	0.05221	0.52673	-0.106
C 	C 	0.5231	0.3486	0.0333	0.049
C 	C 	0.52673	0.30485	0.05221	-0.106
C 	C 	0.0333	0.095	0.5231	0.048
C 	C 	0.05221	0.11621	0.52673	-0.106
C 	C 	0.095	0.0333	0.3486	0.048
C 	C 	0.11621	0.05221	0.30485	-0.106
C 	C 	0.3486	0.5231	0.095	0.049
C 	C 	0.30485	0.52673	0.11621	-0.106
C 	C 	0.9667	0.4769	0.905	0.048
C 	C 	0.94779	0.47327	0.88379	-0.106
C 	C 	0.4769	0.9667	0.6514	0.049
C 	C 	0.47327	0.94779	0.69515	-0.106
C 	C 	0.6514	0.905	0.4769	0.049
C 	C 	0.69515	0.88379	0.47327	-0.106
C 	C 	0.905	0.6514	0.9667	0.048
C 	C 	0.88379	0.69515	0.94779	-0.106
C 	C 	0.905	0.4769	0.6514	0.049
C 	C 	0.88379	0.47327	0.69515	-0.106
C 	C 	0.6514	0.9667	0.905	0.048
C 	C 	0.69515	0.94779	0.88379	-0.106
C 	C 	0.4769	0.905	0.9667	0.048
C 	C 	0.47327	0.88379	0.94779	-0.106
C 	C 	0.9667	0.6514	0.4769	0.049
C 	C 	0.94779	0.69515	0.47327	-0.106
C 	C 	0.6514	0.4769	0.9667	0.049
C 	C 	0.69515	0.47327	0.94779	-0.106
C 	C 	0.905	0.9667	0.4769	0.048
C 	C 	0.88379	0.94779	0.47327	-0.106
C 	C 	0.9667	0.905	0.6514	0.048
C 	C 	0.94779	0.88379	0.69515	-0.106
C 	C 	0.4769	0.6514	0.905	0.049
C 	C 	0.47327	0.69515	0.88379	-0.106
C 	C 	0.48708	0.96664	0.96664	0.398
C 	C 	0.47951	0.94549	0.94549	-0.113
C 	C 	0.471	0.90574	0.90574	0.046
C 	C 	0.46708	0.88498	0.88498	0.108
C 	C 	0.96664	0.48708	0.57964	0.399
C 	C 	0.94549	0.47951	0.62951	-0.113
C 	C 	0.90574	0.471	0.71752	0.046
C 	C 	0.88498	0.46708	0.76296	0.108
C 	C 	0.96664	0.57964	0.48708	0.399
C 	C 	0.94549	0.62951	0.47951	-0.113
C 	C 	0.90574	0.71752	0.471	0.046
C 	C 	0.88498	0.76296	0.46708	0.108
C 	C 	0.57964	0.96664	0.96664	0.398
C 	C 	0.62951	0.94549	0.94549	-0.113
C 	C 	0.71752	0.90574	0.90574	0.046
C 	C 	0.76296	0.88498	0.88498	0.108
C 	C 	0.48708	0.96664	0.57964	0.399
C 	C 	0.47951	0.94549	0.62951	-0.113
C 	C 	0.471	0.90574	0.71752	0.046
C 	C 	0.46708	0.88498	0.76296	0.108
C 	C 	0.96664	0.57964	0.96664	0.398
C 	C 	0.94549	0.62951	0.94549	-0.113
C 	C 	0.90574	0.71752	0.90574	0.046
C 	C 	0.88498	0.76296	0.88498	0.108
C 	C 	0.96664	0.48708	0.96664	0.398
C 	C 	0.94549	0.47951	0.94549	-0.113
C 	C 	0.90574	0.471	0.90574	0.046
C 	C 	0.88498	0.46708	0.88498	0.108
C 	C 	0.57964	0.96664	0.48708	0.399
C 	C 	0.62951	0.94549	0.47951	-0.113
C 	C 	0.71752	0.90574	0.471	0.046
C 	C 	0.76296	0.88498	0.46708	0.108
C 	C 	0.48708	0.57964	0.96664	0.399
C 	C 	0.47951	0.62951	0.94549	-0.113
C 	C 	0.471	0.71752	0.90574	0.046
C 	C 	0.46708	0.76296	0.88498	0.108
C 	C 	0.96664	0.96664	0.48708	0.398
C 	C 	0.94549	0.94549	0.47951	-0.113
C 	C 	0.90574	0.90574	0.471	0.046
C 	C 	0.88498	0.88498	0.46708	0.108
C 	C 	0.96664	0.96664	0.57964	0.398
C 	C 	0.94549	0.94549	0.62951	-0.113
C 	C 	0.90574	0.90574	0.71752	0.046
C 	C 	0.88498	0.88498	0.76296	0.108
C 	C 	0.57964	0.48708	0.96664	0.399
C 	C 	0.62951	0.47951	0.94549	-0.113
C 	C 	0.71752	0.471	0.90574	0.046
C 	C 	0.76296	0.46708	0.88498	0.108
C 	C 	0.03336	0.51292	0.03336	0.398
C 	C 	0.05451	0.52049	0.05451	-0.113
C 	C 	0.09426	0.529	0.09426	0.046
C 	C 	0.11502	0.53292	0.11502	0.108
C 	C 	0.51292	0.03336	0.42036	0.399
C 	C 	0.52049	0.05451	0.37049	-0.113
C 	C 	0.529	0.09426	0.28248	0.046
C 	C 	0.53292	0.11502	0.23704	0.108
C 	C 	0.42036	0.03336	0.51292	0.399
C 	C 	0.37049	0.05451	0.52049	-0.113
C 	C 	0.28248	0.09426	0.529	0.046
C 	C 	0.23704	0.11502	0.53292	0.108
C 	C 	0.03336	0.42036	0.03336	0.398
C 	C 	0.05451	0.37049	0.05451	-0.113
C 	C 	0.09426	0.28248	0.09426	0.046
C 	C 	0.11502	0.23704	0.11502	0.108
C 	C 	0.03336	0.51292	0.42036	0.399
C 	C 	0.05451	0.52049	0.37049	-0.113
C 	C 	0.09426	0.529	0.28248	0.046
C 	C 	0.11502	0.53292	0.23704	0.108
C 	C 	0.42036	0.03336	0.03336	0.398
C 	C 	0.37049	0.05451	0.05451	-0.113
C 	C 	0.28248	0.09426	0.09426	0.046
C 	C 	0.23704	0.11502	0.11502	0.108
C 	C 	0.51292	0.03336	0.03336	0.398
C 	C 	0.52049	0.05451	0.05451	-0.113
C 	C 	0.529	0.09426	0.09426	0.046
C 	C 	0.53292	0.11502	0.11502	0.108
C 	C 	0.03336	0.42036	0.51292	0.399
C 	C 	0.05451	0.37049	0.52049	-0.113
C 	C 	0.09426	0.28248	0.529	0.046
C 	C 	0.11502	0.23704	0.53292	0.108
C 	C 	0.42036	0.51292	0.03336	0.399
C 	C 	0.37049	0.52049	0.05451	-0.113
C 	C 	0.28248	0.529	0.09426	0.046
C 	C 	0.23704	0.53292	0.11502	0.108
C 	C 	0.03336	0.03336	0.51292	0.398
C 	C 	0.05451	0.05451	0.52049	-0.113
C 	C 	0.09426	0.09426	0.529	0.046
C 	C 	0.11502	0.11502	0.53292	0.108
C 	C 	0.03336	0.03336	0.42036	0.398
C 	C 	0.05451	0.05451	0.37049	-0.113
C 	C 	0.09426	0.09426	0.28248	0.046
C 	C 	0.11502	0.11502	0.23704	0.108
C 	C 	0.51292	0.42036	0.03336	0.399
C 	C 	0.52049	0.37049	0.05451	-0.113
C 	C 	0.529	0.28248	0.09426	0.046
C 	C 	0.53292	0.23704	0.11502	0.108
C 	C 	0.46631	0.82307	0.88755	0.198
C 	C 	0.82307	0.46631	0.82307	0.198
C 	C 	0.88755	0.82307	0.46631	0.198
C 	C 	0.82307	0.88755	0.82307	0.198
C 	C 	0.46631	0.88755	0.82307	0.198
C 	C 	0.82307	0.82307	0.88755	0.198
C 	C 	0.88755	0.46631	0.82307	0.198
C 	C 	0.82307	0.82307	0.46631	0.198
C 	C 	0.46631	0.82307	0.82307	0.198
C 	C 	0.82307	0.88755	0.46631	0.198
C 	C 	0.88755	0.82307	0.82307	0.198
C 	C 	0.82307	0.46631	0.88755	0.198
C 	C 	0.17693	0.53369	0.11245	0.198
C 	C 	0.53369	0.17693	0.17693	0.198
C 	C 	0.17693	0.11245	0.53369	0.198
C 	C 	0.11245	0.17693	0.17693	0.198
C 	C 	0.11245	0.53369	0.17693	0.198
C 	C 	0.17693	0.17693	0.11245	0.198
C 	C 	0.53369	0.11245	0.17693	0.198
C 	C 	0.17693	0.17693	0.53369	0.198
C 	C 	0.17693	0.53369	0.17693	0.198
C 	C 	0.11245	0.17693	0.53369	0.198
C 	C 	0.17693	0.11245	0.17693	0.198
C 	C 	0.53369	0.17693	0.11245	0.198
N 	N 	0.46741	0.84337	0.90743	-0.15
N 	N 	0.84337	0.46741	0.78179	-0.15
N 	N 	0.90743	0.78179	0.46741	-0.15
N 	N 	0.78179	0.90743	0.84337	-0.15
N 	N 	0.46741	0.90743	0.78179	-0.15
N 	N 	0.84337	0.78179	0.90743	-0.15
N 	N 	0.90743	0.46741	0.84337	-0.15
N 	N 	0.78179	0.84337	0.46741	-0.15
N 	N 	0.46741	0.78179	0.84337	-0.15
N 	N 	0.84337	0.90743	0.46741	-0.15
N 	N 	0.90743	0.84337	0.78179	-0.15
N 	N 	0.78179	0.46741	0.90743	-0.15
N 	N 	0.15663	0.53259	0.09257	-0.15
N 	N 	0.53259	0.15663	0.21821	-0.15
N 	N 	0.21821	0.09257	0.53259	-0.15
N 	N 	0.09257	0.21821	0.15663	-0.15
N 	N 	0.09257	0.53259	0.21821	-0.15
N 	N 	0.21821	0.15663	0.09257	-0.15
N 	N 	0.53259	0.09257	0.15663	-0.15
N 	N 	0.15663	0.21821	0.53259	-0.15
N 	N 	0.21821	0.53259	0.15663	-0.15
N 	N 	0.09257	0.15663	0.53259	-0.15
N 	N 	0.15663	0.09257	0.21821	-0.15
N 	N 	0.53259	0.21821	0.09257	-0.15
N 	N 	0.53259	0.15663	0.09257	-0.15
N 	N 	0.15663	0.53259	0.21821	-0.15
N 	N 	0.09257	0.21821	0.53259	-0.15
N 	N 	0.21821	0.09257	0.15663	-0.15
N 	N 	0.53259	0.09257	0.21821	-0.15
N 	N 	0.15663	0.21821	0.09257	-0.15
N 	N 	0.09257	0.53259	0.15663	-0.15
N 	N 	0.21821	0.15663	0.53259	-0.15
N 	N 	0.53259	0.21821	0.15663	-0.15
N 	N 	0.15663	0.09257	0.53259	-0.15
N 	N 	0.09257	0.15663	0.21821	-0.15
N 	N 	0.21821	0.53259	0.09257	-0.15
N 	N 	0.84337	0.46741	0.90743	-0.15
N 	N 	0.46741	0.84337	0.78179	-0.15
N 	N 	0.78179	0.90743	0.46741	-0.15
N 	N 	0.90743	0.78179	0.84337	-0.15
N 	N 	0.90743	0.46741	0.78179	-0.15
N 	N 	0.78179	0.84337	0.90743	-0.15
N 	N 	0.46741	0.90743	0.84337	-0.15
N 	N 	0.84337	0.78179	0.46741	-0.15
N 	N 	0.78179	0.46741	0.84337	-0.15
N 	N 	0.90743	0.84337	0.46741	-0.15
N 	N 	0.84337	0.90743	0.78179	-0.15
N 	N 	0.46741	0.78179	0.90743	-0.15
N 	N 	0.46566	0.84478	0.84478	-0.189
N 	N 	0.84478	0.46566	0.84478	-0.189
N 	N 	0.84478	0.84478	0.46566	-0.189
N 	N 	0.84478	0.84478	0.84478	-0.189
N 	N 	0.15522	0.53434	0.15522	-0.189
N 	N 	0.53434	0.15522	0.15522	-0.189
N 	N 	0.15522	0.15522	0.53434	-0.189
N 	N 	0.15522	0.15522	0.15522	-0.189
O 	O 	0.48883	0.00359	0.94438	-0.423
O 	O 	0.00359	0.48883	0.5632	-0.424
O 	O 	0.94438	0.5632	0.48883	-0.424
O 	O 	0.5632	0.94438	0.00359	-0.423
O 	O 	0.48883	0.94438	0.5632	-0.424
O 	O 	0.00359	0.5632	0.94438	-0.423
O 	O 	0.94438	0.48883	0.00359	-0.423
O 	O 	0.5632	0.00359	0.48883	-0.424
O 	O 	0.48883	0.5632	0.00359	-0.424
O 	O 	0.00359	0.94438	0.48883	-0.423
O 	O 	0.94438	0.00359	0.5632	-0.423
O 	O 	0.5632	0.48883	0.94438	-0.424
O 	O 	0.99641	0.51117	0.05562	-0.423
O 	O 	0.51117	0.99641	0.4368	-0.424
O 	O 	0.4368	0.05562	0.51117	-0.424
O 	O 	0.05562	0.4368	0.99641	-0.423
O 	O 	0.05562	0.51117	0.4368	-0.424
O 	O 	0.4368	0.99641	0.05562	-0.423
O 	O 	0.51117	0.05562	0.99641	-0.423
O 	O 	0.99641	0.4368	0.51117	-0.424
O 	O 	0.4368	0.51117	0.99641	-0.424
O 	O 	0.05562	0.99641	0.51117	-0.423
O 	O 	0.99641	0.05562	0.4368	-0.423
O 	O 	0.51117	0.4368	0.05562	-0.424
O 	O 	0.51117	0.99641	0.05562	-0.423
O 	O 	0.99641	0.51117	0.4368	-0.424
O 	O 	0.05562	0.4368	0.51117	-0.424
O 	O 	0.4368	0.05562	0.99641	-0.423
O 	O 	0.51117	0.05562	0.4368	-0.424
O 	O 	0.99641	0.4368	0.05562	-0.423
O 	O 	0.05562	0.51117	0.99641	-0.423
O 	O 	0.4368	0.99641	0.51117	-0.424
O 	O 	0.51117	0.4368	0.99641	-0.424
O 	O 	0.99641	0.05562	0.51117	-0.423
O 	O 	0.05562	0.99641	0.4368	-0.423
O 	O 	0.4368	0.51117	0.05562	-0.424
O 	O 	0.00359	0.48883	0.94438	-0.423
O 	O 	0.48883	0.00359	0.5632	-0.424
O 	O 	0.5632	0.94438	0.48883	-0.424
O 	O 	0.94438	0.5632	0.00359	-0.423
O 	O 	0.94438	0.48883	0.5632	-0.424
O 	O 	0.5632	0.00359	0.94438	-0.423
O 	O 	0.48883	0.94438	0.00359	-0.423
O 	O 	0.00359	0.5632	0.48883	-0.424
O 	O 	0.5632	0.48883	0.00359	-0.424
O 	O 	0.94438	0.00359	0.48883	-0.423
O 	O 	0.00359	0.94438	0.5632	-0.423
O 	O 	0.48883	0.5632	0.94438	-0.424
_end
