data_functionalizedCrystal
_audit_creation_method	'EQeq! by Chris Wilmer'
_symmetry_space_group_name_H-M	'P1'
_symmetry_Int_Tables_number	1
_symmetry_cell_setting	triclinic
loop_
_symmetry_equiv_pos_as_xyz
  x,y,z
_cell_length_a	30.3522
_cell_length_b	30.3522
_cell_length_c	30.3522
_cell_angle_alpha	60
_cell_angle_beta	60
_cell_angle_gamma	60
loop_
_atom_site_label
_atom_site_type_symbol
_atom_site_fract_x
_atom_site_fract_y
_atom_site_fract_z
_atom_site_charge
Zn	Zn	0.22383	0.32851	0.22383	1.217
Zn	Zn	0.32851	0.22383	0.22383	1.218
Zn	Zn	0.22383	0.22383	0.22383	1.218
Zn	Zn	0.22383	0.22383	0.32851	1.218
Zn	Zn	0.67149	0.77617	0.77617	1.218
Zn	Zn	0.77617	0.67149	0.77617	1.218
Zn	Zn	0.77617	0.77617	0.77617	1.218
Zn	Zn	0.77617	0.77617	0.67149	1.218
H 	H 	0.95863	0.39745	0.18012	0.049
H 	H 	0.46439	0.95766	0.39746	0.049
H 	H 	0.96682	0.17704	0.45791	0.05
H 	H 	0.40802	0.43821	0.17108	0.052
H 	H 	0.18131	0.39758	0.46564	0.049
H 	H 	0.40159	0.97565	0.17372	0.051
H 	H 	0.53942	0.79897	0.097	0.044
H 	H 	0.58548	0.52802	0.08183	0.046
H 	H 	0.81057	0.06613	0.52712	0.047
H 	H 	0.57677	0.80163	0.53168	0.045
H 	H 	0.83	0.56929	0.01445	0.052
H 	H 	0.8029	0.52975	0.08654	0.045
H 	H 	0.80967	0.59491	0.06854	0.047
H 	H 	0.52749	0.81149	0.59733	0.048
H 	H 	0.5897	0.82945	0.56494	0.052
H 	H 	0.80225	0.08829	0.57881	0.046
H 	H 	0.82975	0.01512	0.58803	0.053
H 	H 	0.52681	0.59139	0.07429	0.046
H 	H 	0.58166	0.57455	0.0134	0.052
H 	H 	0.0353	0.54039	0.60215	0.05
H 	H 	0.0344	0.602	0.5411	0.05
H 	H 	0.09983	0.55156	0.5507	0.044
H 	H 	0.55278	0.82682	0.02291	0.05
H 	H 	0.60176	0.81678	0.04962	0.048
H 	H 	0.17451	0.45146	0.40047	0.05
H 	H 	0.20162	0.45701	0.43994	0.044
H 	H 	0.46715	0.95255	0.18241	0.048
H 	H 	0.43731	0.90227	0.2013	0.044
H 	H 	0.90021	0.20208	0.45045	0.043
H 	H 	0.96344	0.17831	0.39769	0.049
H 	H 	0.42626	0.46665	0.19919	0.044
H 	H 	0.47176	0.40118	0.18717	0.047
H 	H 	0.90077	0.45455	0.20187	0.043
H 	H 	0.97108	0.45405	0.17544	0.05
H 	H 	0.39973	0.97186	0.45326	0.05
H 	H 	0.44193	0.90095	0.45532	0.044
H 	H 	0.12795	0.30104	0.12795	0.029
H 	H 	0.06913	0.36235	0.06913	0.048
H 	H 	0.30104	0.12795	0.44306	0.029
H 	H 	0.35791	0.07166	0.49877	0.047
H 	H 	0.12795	0.44306	0.12795	0.029
H 	H 	0.07166	0.49877	0.07166	0.047
H 	H 	0.44306	0.12795	0.30104	0.029
H 	H 	0.49877	0.07166	0.35791	0.047
H 	H 	0.12795	0.12795	0.44306	0.029
H 	H 	0.06913	0.06913	0.49939	0.048
H 	H 	0.30104	0.44306	0.12795	0.029
H 	H 	0.35791	0.49877	0.07166	0.048
H 	H 	0.12795	0.12795	0.30104	0.029
H 	H 	0.06913	0.06913	0.36235	0.048
H 	H 	0.44306	0.30104	0.12795	0.029
H 	H 	0.49877	0.35791	0.07166	0.048
H 	H 	0.12795	0.44306	0.30104	0.029
H 	H 	0.07166	0.49877	0.35791	0.047
H 	H 	0.30104	0.12795	0.12795	0.029
H 	H 	0.35791	0.07166	0.07166	0.047
H 	H 	0.12795	0.30104	0.44306	0.029
H 	H 	0.06913	0.36235	0.49939	0.048
H 	H 	0.44306	0.12795	0.12795	0.029
H 	H 	0.49877	0.07166	0.07166	0.048
H 	H 	0.69896	0.87205	0.87205	0.029
H 	H 	0.64209	0.92834	0.92834	0.047
H 	H 	0.87205	0.69896	0.55694	0.029
H 	H 	0.92834	0.64209	0.50123	0.047
H 	H 	0.55694	0.87205	0.87205	0.029
H 	H 	0.50061	0.93087	0.93087	0.048
H 	H 	0.87205	0.55694	0.69896	0.029
H 	H 	0.92834	0.50123	0.64209	0.047
H 	H 	0.87205	0.87205	0.55694	0.029
H 	H 	0.93087	0.93087	0.50061	0.048
H 	H 	0.55694	0.69896	0.87205	0.029
H 	H 	0.50123	0.64209	0.92834	0.048
H 	H 	0.87205	0.87205	0.69896	0.029
H 	H 	0.92834	0.92834	0.64209	0.048
H 	H 	0.69896	0.55694	0.87205	0.029
H 	H 	0.64209	0.50123	0.92834	0.048
H 	H 	0.55694	0.87205	0.69896	0.029
H 	H 	0.50123	0.92834	0.64209	0.048
H 	H 	0.87205	0.69896	0.87205	0.029
H 	H 	0.92834	0.64209	0.92834	0.048
H 	H 	0.69896	0.87205	0.55694	0.029
H 	H 	0.64209	0.92834	0.50123	0.048
H 	H 	0.87205	0.55694	0.87205	0.029
H 	H 	0.93087	0.50061	0.93087	0.048
H 	H 	0.85007	0.49666	0.1566	0.016
H 	H 	0.49666	0.85007	0.49666	0.016
H 	H 	0.85007	0.1566	0.49666	0.016
H 	H 	0.49666	0.49666	0.1566	0.017
H 	H 	0.1566	0.49666	0.49666	0.016
H 	H 	0.49666	0.85007	0.1566	0.016
C 	C 	0.1663	0.3337	0.1663	0.354
C 	C 	0.1336	0.3664	0.1336	-0.143
C 	C 	0.0649	0.4351	0.0649	0.06
C 	C 	0.0328	0.4672	0.0328	-0.037
C 	C 	0.3337	0.1663	0.3337	0.354
C 	C 	0.3664	0.1336	0.3664	-0.142
C 	C 	0.4351	0.0649	0.4351	0.06
C 	C 	0.4672	0.0328	0.4672	-0.036
C 	C 	0.1663	0.1663	0.3337	0.354
C 	C 	0.1336	0.1336	0.3664	-0.143
C 	C 	0.0649	0.0649	0.4351	0.059
C 	C 	0.0328	0.0328	0.4672	-0.037
C 	C 	0.3337	0.3337	0.1663	0.354
C 	C 	0.3664	0.3664	0.1336	-0.142
C 	C 	0.4351	0.4351	0.0649	0.06
C 	C 	0.4672	0.4672	0.0328	-0.037
C 	C 	0.1663	0.3337	0.3337	0.354
C 	C 	0.1336	0.3664	0.3664	-0.143
C 	C 	0.0649	0.4351	0.4351	0.06
C 	C 	0.0328	0.4672	0.4672	-0.037
C 	C 	0.3337	0.1663	0.1663	0.354
C 	C 	0.3664	0.1336	0.1336	-0.142
C 	C 	0.4351	0.0649	0.0649	0.061
C 	C 	0.4672	0.0328	0.0328	-0.037
C 	C 	0.6663	0.8337	0.8337	0.354
C 	C 	0.6336	0.8664	0.8664	-0.143
C 	C 	0.5649	0.9351	0.9351	0.059
C 	C 	0.5328	0.9672	0.9672	-0.036
C 	C 	0.8337	0.6663	0.6663	0.354
C 	C 	0.8664	0.6336	0.6336	-0.142
C 	C 	0.9351	0.5649	0.5649	0.061
C 	C 	0.9672	0.5328	0.5328	-0.037
C 	C 	0.8337	0.8337	0.6663	0.354
C 	C 	0.8664	0.8664	0.6336	-0.143
C 	C 	0.9351	0.9351	0.5649	0.059
C 	C 	0.9672	0.9672	0.5328	-0.037
C 	C 	0.6663	0.6663	0.8337	0.354
C 	C 	0.6336	0.6336	0.8664	-0.142
C 	C 	0.5649	0.5649	0.9351	0.059
C 	C 	0.5328	0.5328	0.9672	-0.035
C 	C 	0.6663	0.8337	0.6663	0.354
C 	C 	0.6336	0.8664	0.6336	-0.142
C 	C 	0.5649	0.9351	0.5649	0.06
C 	C 	0.5328	0.9672	0.5328	-0.037
C 	C 	0.8337	0.6663	0.8337	0.354
C 	C 	0.8664	0.6336	0.8664	-0.143
C 	C 	0.9351	0.5649	0.9351	0.059
C 	C 	0.9672	0.5328	0.9672	-0.036
C 	C 	0.1161	0.3465	0.1161	0.046
C 	C 	0.0829	0.3807	0.0829	-0.085
C 	C 	0.3465	0.1161	0.4213	0.045
C 	C 	0.3807	0.0829	0.4535	-0.084
C 	C 	0.1161	0.4213	0.1161	0.045
C 	C 	0.0829	0.4535	0.0829	-0.084
C 	C 	0.4213	0.1161	0.3465	0.045
C 	C 	0.4535	0.0829	0.3807	-0.084
C 	C 	0.1161	0.1161	0.4213	0.046
C 	C 	0.0829	0.0829	0.4535	-0.084
C 	C 	0.3465	0.4213	0.1161	0.045
C 	C 	0.3807	0.4535	0.0829	-0.085
C 	C 	0.1161	0.1161	0.3465	0.046
C 	C 	0.0829	0.0829	0.3807	-0.084
C 	C 	0.4213	0.3465	0.1161	0.045
C 	C 	0.4535	0.3807	0.0829	-0.084
C 	C 	0.1161	0.4213	0.3465	0.045
C 	C 	0.0829	0.4535	0.3807	-0.084
C 	C 	0.3465	0.1161	0.1161	0.045
C 	C 	0.3807	0.0829	0.0829	-0.085
C 	C 	0.1161	0.3465	0.4213	0.046
C 	C 	0.0829	0.3807	0.4535	-0.084
C 	C 	0.4213	0.1161	0.1161	0.045
C 	C 	0.4535	0.0829	0.0829	-0.084
C 	C 	0.6535	0.8839	0.8839	0.045
C 	C 	0.6193	0.9171	0.9171	-0.083
C 	C 	0.8839	0.6535	0.5787	0.045
C 	C 	0.9171	0.6193	0.5465	-0.084
C 	C 	0.5787	0.8839	0.8839	0.045
C 	C 	0.5465	0.9171	0.9171	-0.085
C 	C 	0.8839	0.5787	0.6535	0.045
C 	C 	0.9171	0.5465	0.6193	-0.084
C 	C 	0.8839	0.8839	0.5787	0.046
C 	C 	0.9171	0.9171	0.5465	-0.085
C 	C 	0.5787	0.6535	0.8839	0.044
C 	C 	0.5465	0.6193	0.9171	-0.084
C 	C 	0.8839	0.8839	0.6535	0.045
C 	C 	0.9171	0.9171	0.6193	-0.084
C 	C 	0.6535	0.5787	0.8839	0.044
C 	C 	0.6193	0.5465	0.9171	-0.084
C 	C 	0.5787	0.8839	0.6535	0.045
C 	C 	0.5465	0.9171	0.6193	-0.084
C 	C 	0.8839	0.6535	0.8839	0.045
C 	C 	0.9171	0.6193	0.9171	-0.084
C 	C 	0.6535	0.8839	0.5787	0.044
C 	C 	0.6193	0.9171	0.5465	-0.085
C 	C 	0.8839	0.5787	0.8839	0.045
C 	C 	0.9171	0.5465	0.9171	-0.085
C 	C 	0.0554	0.4834	0.9778	-0.026
C 	C 	0.4834	0.0554	0.4834	-0.027
C 	C 	0.9778	0.4834	0.0554	0.036
C 	C 	0.9428	0.4428	0.1716	-0.089
C 	C 	0.4834	0.9778	0.4834	0.036
C 	C 	0.4428	0.9428	0.4428	-0.089
C 	C 	0.0554	0.9778	0.4834	-0.028
C 	C 	0.4834	0.4834	0.9778	-0.026
C 	C 	0.9778	0.0554	0.4834	0.035
C 	C 	0.9428	0.1716	0.4428	-0.089
C 	C 	0.4834	0.4834	0.0554	0.036
C 	C 	0.4428	0.4428	0.1716	-0.09
C 	C 	0.0554	0.4834	0.4834	0.036
C 	C 	0.1716	0.4428	0.4428	-0.089
C 	C 	0.4834	0.9778	0.0554	0.036
C 	C 	0.4428	0.9428	0.1716	-0.089
C 	C 	0.9778	0.4834	0.4834	-0.027
C 	C 	0.4834	0.0554	0.9778	-0.026
C 	C 	0.5166	0.9446	0.0222	0.035
C 	C 	0.5572	0.8284	0.0572	-0.089
C 	C 	0.9446	0.5166	0.5166	-0.027
C 	C 	0.5166	0.0222	0.9446	-0.027
C 	C 	0.0222	0.5166	0.5166	0.036
C 	C 	0.0572	0.5572	0.5572	-0.089
C 	C 	0.0222	0.9446	0.5166	-0.027
C 	C 	0.5166	0.5166	0.0222	0.035
C 	C 	0.5572	0.5572	0.0572	-0.09
C 	C 	0.9446	0.0222	0.5166	0.036
C 	C 	0.8284	0.0572	0.5572	-0.09
C 	C 	0.5166	0.5166	0.9446	-0.028
C 	C 	0.5166	0.9446	0.5166	0.036
C 	C 	0.5572	0.8284	0.5572	-0.09
C 	C 	0.0222	0.5166	0.9446	-0.028
C 	C 	0.5166	0.0222	0.5166	-0.027
C 	C 	0.9446	0.5166	0.0222	0.035
C 	C 	0.8284	0.5572	0.0572	-0.09
C 	C 	0.884	0.5	0.116	0.048
C 	C 	0.5	0.884	0.5	0.048
C 	C 	0.884	0.116	0.5	0.048
C 	C 	0.5	0.5	0.116	0.047
C 	C 	0.116	0.5	0.5	0.048
C 	C 	0.5	0.884	0.116	0.048
N 	N 	0.94	0.473	0.114	-0.105
N 	N 	0.473	0.94	0.473	-0.104
N 	N 	0.94	0.114	0.473	-0.104
N 	N 	0.473	0.473	0.114	-0.104
N 	N 	0.114	0.473	0.473	-0.104
N 	N 	0.473	0.94	0.114	-0.104
N 	N 	0.527	0.886	0.06	-0.104
N 	N 	0.06	0.527	0.527	-0.104
N 	N 	0.527	0.527	0.06	-0.104
N 	N 	0.886	0.06	0.527	-0.104
N 	N 	0.527	0.886	0.527	-0.104
N 	N 	0.886	0.527	0.06	-0.104
O 	O 	0.1808	0.3574	0.1808	-0.493
O 	O 	0.3574	0.1808	0.281	-0.493
O 	O 	0.1808	0.281	0.1808	-0.493
O 	O 	0.281	0.1808	0.3574	-0.493
O 	O 	0.1808	0.1808	0.281	-0.493
O 	O 	0.3574	0.281	0.1808	-0.493
O 	O 	0.1808	0.1808	0.3574	-0.493
O 	O 	0.281	0.3574	0.1808	-0.493
O 	O 	0.1808	0.281	0.3574	-0.493
O 	O 	0.3574	0.1808	0.1808	-0.493
O 	O 	0.1808	0.3574	0.281	-0.493
O 	O 	0.281	0.1808	0.1808	-0.493
O 	O 	0.6426	0.8192	0.8192	-0.493
O 	O 	0.8192	0.6426	0.719	-0.493
O 	O 	0.719	0.8192	0.8192	-0.493
O 	O 	0.8192	0.719	0.6426	-0.493
O 	O 	0.8192	0.8192	0.719	-0.493
O 	O 	0.719	0.6426	0.8192	-0.493
O 	O 	0.8192	0.8192	0.6426	-0.493
O 	O 	0.6426	0.719	0.8192	-0.493
O 	O 	0.719	0.8192	0.6426	-0.493
O 	O 	0.8192	0.6426	0.8192	-0.493
O 	O 	0.6426	0.8192	0.719	-0.493
O 	O 	0.8192	0.719	0.8192	-0.493
O 	O 	0.25	0.25	0.25	-0.956
O 	O 	0.75	0.75	0.75	-0.956
H 	H 	0.10116	0.47035	0.95814	0.033
H 	H 	0.47035	0.10116	0.47035	0.033
H 	H 	0.10116	0.95814	0.47035	0.033
H 	H 	0.47035	0.47035	0.95814	0.033
H 	H 	0.95814	0.47035	0.47035	0.033
H 	H 	0.47035	0.10116	0.95814	0.033
H 	H 	0.89879	0.52988	0.52988	0.033
H 	H 	0.52965	0.04186	0.89884	0.033
H 	H 	0.04145	0.89879	0.52988	0.033
H 	H 	0.52988	0.52988	0.89879	0.034
H 	H 	0.04145	0.52988	0.89879	0.034
H 	H 	0.52965	0.04186	0.52965	0.033
_end
