data_functionalizedCrystal
_audit_creation_method	'EQeq! by Chris Wilmer'
_symmetry_space_group_name_H-M	'P1'
_symmetry_Int_Tables_number	1
_symmetry_cell_setting	triclinic
loop_
_symmetry_equiv_pos_as_xyz
  x,y,z
_cell_length_a	19.853
_cell_length_b	24.1512
_cell_length_c	30.5734
_cell_angle_alpha	90
_cell_angle_beta	90
_cell_angle_gamma	109.411
loop_
_atom_site_label
_atom_site_type_symbol
_atom_site_fract_x
_atom_site_fract_y
_atom_site_fract_z
_atom_site_charge
Tb	Tb	0.97817	0.91366	0.49544	2.248
Tb	Tb	0.02183	0.58634	0.99544	2.252
Tb	Tb	0.02183	0.08634	0.50456	2.247
Tb	Tb	0.97817	0.41366	0.00456	2.251
H 	H 	0.7902	0.5687	0.4971	0.1
H 	H 	0.9093	0.6118	0.5131	0.033
H 	H 	0.9581	0.7126	0.5204	0.086
H 	H 	0.7677	0.7279	0.4887	0.096
H 	H 	0.6874	0.5838	0.4553	0.095
H 	H 	0.6749	0.645	0.4608	0.094
H 	H 	0.2235	0.9914	0.2994	0.078
H 	H 	0.2462	0.0882	0.3216	0.067
H 	H 	0.1876	0.1093	0.3818	0.064
H 	H 	0.0933	0.936	0.4032	0.069
H 	H 	0.1833	0.8875	0.3208	0.085
H 	H 	0.1372	0.8674	0.3639	0.089
H 	H 	0.0499	0.7807	0.3255	0.05
H 	H 	0.1021	0.7988	0.285	0.048
H 	H 	0.006	0.8047	0.242	0.104
H 	H 	0.9546	0.7819	0.2826	0.101
H 	H 	0.7518	0.0061	0.2981	0.076
H 	H 	0.7385	0.9153	0.3301	0.053
H 	H 	0.8108	0.9088	0.3883	0.055
H 	H 	0.9115	0.0834	0.3819	0.072
H 	H 	0.8011	0.1112	0.3004	0.086
H 	H 	0.8457	0.1415	0.3422	0.088
H 	H 	0.9253	0.7212	0.2018	0.082
H 	H 	0.879	0.6936	0.2435	0.081
H 	H 	0.2098	0.9313	0.9971	0.102
H 	H 	0.0907	0.8882	0.0131	0.033
H 	H 	0.0419	0.7874	0.0204	0.088
H 	H 	0.2323	0.7721	0.9887	0.097
H 	H 	0.3126	0.9162	0.9553	0.096
H 	H 	0.3251	0.855	0.9608	0.095
H 	H 	0.7765	0.5086	0.7994	0.08
H 	H 	0.7538	0.4118	0.8216	0.065
H 	H 	0.8124	0.3907	0.8818	0.066
H 	H 	0.9067	0.564	0.9032	0.07
H 	H 	0.8167	0.6125	0.8208	0.085
H 	H 	0.8628	0.6326	0.8639	0.089
H 	H 	0.9501	0.7193	0.8255	0.051
H 	H 	0.8979	0.7012	0.785	0.049
H 	H 	0.994	0.6953	0.742	0.099
H 	H 	0.0454	0.7181	0.7826	0.098
H 	H 	0.2482	0.4939	0.7981	0.078
H 	H 	0.2615	0.5847	0.8301	0.051
H 	H 	0.1892	0.5912	0.8883	0.057
H 	H 	0.0885	0.4166	0.8819	0.073
H 	H 	0.1989	0.3888	0.8004	0.086
H 	H 	0.1543	0.3585	0.8422	0.088
H 	H 	0.0747	0.7788	0.7018	0.082
H 	H 	0.121	0.8064	0.7435	0.081
H 	H 	0.2098	0.4313	0.5029	0.1
H 	H 	0.0907	0.3882	0.4869	0.033
H 	H 	0.0419	0.2874	0.4796	0.086
H 	H 	0.2323	0.2721	0.5113	0.096
H 	H 	0.3126	0.4162	0.5447	0.095
H 	H 	0.3251	0.355	0.5392	0.094
H 	H 	0.7765	0.0086	0.7006	0.078
H 	H 	0.7538	0.9118	0.6784	0.067
H 	H 	0.8124	0.8907	0.6182	0.064
H 	H 	0.9067	0.064	0.5968	0.069
H 	H 	0.8167	0.1125	0.6792	0.085
H 	H 	0.8628	0.1326	0.6361	0.089
H 	H 	0.9501	0.2193	0.6745	0.05
H 	H 	0.8979	0.2012	0.715	0.048
H 	H 	0.994	0.1953	0.758	0.104
H 	H 	0.0454	0.2181	0.7174	0.101
H 	H 	0.2482	0.9939	0.7019	0.076
H 	H 	0.2615	0.0847	0.6699	0.053
H 	H 	0.1892	0.0912	0.6117	0.055
H 	H 	0.0885	0.9166	0.6181	0.072
H 	H 	0.1989	0.8888	0.6996	0.086
H 	H 	0.1543	0.8585	0.6578	0.088
H 	H 	0.0747	0.2788	0.7982	0.082
H 	H 	0.121	0.3064	0.7565	0.081
H 	H 	0.7902	0.0687	0.0029	0.102
H 	H 	0.9093	0.1118	0.9869	0.033
H 	H 	0.9581	0.2126	0.9796	0.088
H 	H 	0.7677	0.2279	0.0113	0.097
H 	H 	0.6874	0.0838	0.0447	0.096
H 	H 	0.6749	0.145	0.0392	0.095
H 	H 	0.2235	0.4914	0.2006	0.08
H 	H 	0.2462	0.5882	0.1784	0.065
H 	H 	0.1876	0.6093	0.1182	0.066
H 	H 	0.0933	0.436	0.0968	0.07
H 	H 	0.1833	0.3875	0.1792	0.085
H 	H 	0.1372	0.3674	0.1361	0.089
H 	H 	0.0499	0.2807	0.1745	0.051
H 	H 	0.1021	0.2988	0.215	0.049
H 	H 	0.006	0.3047	0.258	0.099
H 	H 	0.9546	0.2819	0.2174	0.098
H 	H 	0.7518	0.5061	0.2019	0.078
H 	H 	0.7385	0.4153	0.1699	0.051
H 	H 	0.8108	0.4088	0.1117	0.057
H 	H 	0.9115	0.5834	0.1181	0.073
H 	H 	0.8011	0.6112	0.1996	0.086
H 	H 	0.8457	0.6415	0.1578	0.088
H 	H 	0.9253	0.2212	0.2982	0.082
H 	H 	0.879	0.1936	0.2565	0.081
C 	C 	0.7672	0.6436	0.4901	0.129
C 	C 	0.8099	0.6098	0.4985	-0.141
C 	C 	0.8806	0.6354	0.5087	0.048
C 	C 	0.9098	0.6954	0.5127	-0.08
C 	C 	0.8679	0.7307	0.5052	0.015
C 	C 	0.7964	0.7044	0.4939	-0.116
C 	C 	0.8991	0.7954	0.5065	0.284
C 	C 	0.6908	0.6158	0.4759	-0.161
C 	C 	0.5685	0.555	0.4997	0.044
C 	C 	0.5214	0.5256	0.5334	0.012
C 	C 	0.5584	0.5051	0.4839	-0.005
C 	C 	0.1562	0.9543	0.3492	0.083
C 	C 	0.2015	0.9996	0.3246	-0.085
C 	C 	0.2142	0.0574	0.3376	-0.018
C 	C 	0.1802	0.0701	0.374	-0.009
C 	C 	0.1355	0.0247	0.3989	-0.081
C 	C 	0.1236	0.9668	0.3864	-0.046
C 	C 	0.0985	0.0391	0.4386	0.433
C 	C 	0.1423	0.8908	0.3371	-0.136
C 	C 	0.0598	0.8039	0.2985	-0.004
C 	C 	0.998	0.78	0.2683	-0.199
C 	C 	0.8335	0.0534	0.3377	0.083
C 	C 	0.7812	0.0034	0.3215	-0.086
C 	C 	0.7733	0.9494	0.3407	-0.019
C 	C 	0.8165	0.9455	0.3755	-0.002
C 	C 	0.8678	0.9954	0.3912	-0.091
C 	C 	0.8761	0.0494	0.3716	-0.046
C 	C 	0.9112	0.9936	0.4312	0.47
C 	C 	0.8426	0.1133	0.3185	-0.142
C 	C 	0.9209	0.6942	0.2264	-0.133
C 	C 	0.9867	0.7166	0.2548	0.069
C 	C 	0.2328	0.8564	0.9901	0.132
C 	C 	0.1901	0.8902	0.9985	-0.146
C 	C 	0.1194	0.8646	0.0087	0.054
C 	C 	0.0902	0.8046	0.0127	-0.084
C 	C 	0.1321	0.7693	0.0052	0.018
C 	C 	0.2036	0.7956	0.9939	-0.12
C 	C 	0.1009	0.7046	0.0065	0.284
C 	C 	0.3092	0.8842	0.9759	-0.163
C 	C 	0.4315	0.945	0.9997	0.043
C 	C 	0.4786	0.9744	0.0334	0.012
C 	C 	0.4416	0.9949	0.9839	-0.006
C 	C 	0.8438	0.5457	0.8492	0.086
C 	C 	0.7985	0.5004	0.8246	-0.092
C 	C 	0.7858	0.4426	0.8376	-0.011
C 	C 	0.8198	0.4299	0.874	-0.013
C 	C 	0.8645	0.4753	0.8989	-0.075
C 	C 	0.8764	0.5332	0.8864	-0.052
C 	C 	0.9015	0.4609	0.9386	0.435
C 	C 	0.8577	0.6092	0.8371	-0.138
C 	C 	0.9402	0.6961	0.7985	-0.011
C 	C 	0.002	0.72	0.7683	-0.188
C 	C 	0.1665	0.4466	0.8377	0.087
C 	C 	0.2188	0.4966	0.8215	-0.092
C 	C 	0.2267	0.5506	0.8407	-0.014
C 	C 	0.1835	0.5545	0.8755	-0.006
C 	C 	0.1322	0.5046	0.8912	-0.087
C 	C 	0.1239	0.4506	0.8716	-0.051
C 	C 	0.0888	0.5064	0.9312	0.472
C 	C 	0.1574	0.3867	0.8185	-0.144
C 	C 	0.0791	0.8058	0.7264	-0.132
C 	C 	0.0133	0.7834	0.7548	0.068
C 	C 	0.2328	0.3564	0.5099	0.129
C 	C 	0.1901	0.3902	0.5015	-0.141
C 	C 	0.1194	0.3646	0.4913	0.048
C 	C 	0.0902	0.3046	0.4873	-0.08
C 	C 	0.1321	0.2693	0.4948	0.015
C 	C 	0.2036	0.2956	0.5061	-0.116
C 	C 	0.1009	0.2046	0.4935	0.284
C 	C 	0.3092	0.3842	0.5241	-0.161
C 	C 	0.4315	0.445	0.5003	0.044
C 	C 	0.4786	0.4744	0.4666	0.012
C 	C 	0.4416	0.4949	0.5161	-0.005
C 	C 	0.8438	0.0457	0.6508	0.083
C 	C 	0.7985	0.0004	0.6754	-0.085
C 	C 	0.7858	0.9426	0.6624	-0.018
C 	C 	0.8198	0.9299	0.626	-0.009
C 	C 	0.8645	0.9753	0.6011	-0.081
C 	C 	0.8764	0.0332	0.6136	-0.046
C 	C 	0.9015	0.9609	0.5614	0.433
C 	C 	0.8577	0.1092	0.6629	-0.136
C 	C 	0.9402	0.1961	0.7015	-0.004
C 	C 	0.002	0.22	0.7317	-0.199
C 	C 	0.1665	0.9466	0.6623	0.083
C 	C 	0.2188	0.9966	0.6785	-0.086
C 	C 	0.2267	0.0506	0.6593	-0.019
C 	C 	0.1835	0.0545	0.6245	-0.002
C 	C 	0.1322	0.0046	0.6088	-0.091
C 	C 	0.1239	0.9506	0.6284	-0.046
C 	C 	0.0888	0.0064	0.5688	0.47
C 	C 	0.1574	0.8867	0.6815	-0.142
C 	C 	0.0791	0.3058	0.7736	-0.133
C 	C 	0.0133	0.2834	0.7452	0.069
C 	C 	0.7672	0.1436	0.0099	0.132
C 	C 	0.8099	0.1098	0.0015	-0.146
C 	C 	0.8806	0.1354	0.9913	0.054
C 	C 	0.9098	0.1954	0.9873	-0.084
C 	C 	0.8679	0.2307	0.9948	0.018
C 	C 	0.7964	0.2044	0.0061	-0.12
C 	C 	0.8991	0.2954	0.9935	0.284
C 	C 	0.6908	0.1158	0.0241	-0.163
C 	C 	0.5685	0.055	0.0003	0.043
C 	C 	0.5214	0.0256	0.9666	0.012
C 	C 	0.5584	0.0051	0.0161	-0.006
C 	C 	0.1562	0.4543	0.1508	0.086
C 	C 	0.2015	0.4996	0.1754	-0.092
C 	C 	0.2142	0.5574	0.1624	-0.011
C 	C 	0.1802	0.5701	0.126	-0.013
C 	C 	0.1355	0.5247	0.1011	-0.075
C 	C 	0.1236	0.4668	0.1136	-0.052
C 	C 	0.0985	0.5391	0.0614	0.435
C 	C 	0.1423	0.3908	0.1629	-0.138
C 	C 	0.0598	0.3039	0.2015	-0.011
C 	C 	0.998	0.28	0.2317	-0.188
C 	C 	0.8335	0.5534	0.1623	0.087
C 	C 	0.7812	0.5034	0.1785	-0.092
C 	C 	0.7733	0.4494	0.1593	-0.014
C 	C 	0.8165	0.4455	0.1245	-0.006
C 	C 	0.8678	0.4954	0.1088	-0.087
C 	C 	0.8761	0.5494	0.1284	-0.051
C 	C 	0.9112	0.4936	0.0688	0.472
C 	C 	0.8426	0.6133	0.1815	-0.144
C 	C 	0.9209	0.1942	0.2736	-0.132
C 	C 	0.9867	0.2166	0.2452	0.068
N 	N 	0.643	0.5919	0.5146	-0.074
N 	N 	0.0763	0.8667	0.31	-0.08
N 	N 	0.9096	0.1337	0.2911	-0.064
N 	N 	0.357	0.9081	0.0146	-0.073
N 	N 	0.9237	0.6333	0.81	-0.079
N 	N 	0.0904	0.3663	0.7911	-0.064
N 	N 	0.357	0.4081	0.4854	-0.074
N 	N 	0.9237	0.1333	0.69	-0.08
N 	N 	0.0904	0.8663	0.7089	-0.064
N 	N 	0.643	0.0919	0.9854	-0.073
N 	N 	0.0763	0.3667	0.19	-0.079
N 	N 	0.9096	0.6337	0.2089	-0.064
O 	O 	0.0845	0.8838	0.4915	-0.294
O 	O 	0.9876	0.8707	0.42435	-0.313
O 	O 	0.9558	0.8183	0.5279	-0.409
O 	O 	0.8711	0.8261	0.48438	-0.382
O 	O 	0.0602	0.9964	0.46221	-0.587
O 	O 	0.8926	0.9094	0.5527	-0.473
O 	O 	0.9069	0.945	0.4468	-0.525
O 	O 	0.0511	0.9561	0.55314	-0.534
O 	O 	0.9155	0.6162	0.9915	-0.295
O 	O 	0.0124	0.6293	0.92435	-0.312
O 	O 	0.0442	0.6817	0.0279	-0.407
O 	O 	0.1289	0.6739	0.98438	-0.383
O 	O 	0.9398	0.5036	0.96221	-0.59
O 	O 	0.1074	0.5906	0.0527	-0.473
O 	O 	0.0931	0.555	0.9468	-0.525
O 	O 	0.9489	0.5439	0.05314	-0.538
O 	O 	0.9155	0.1162	0.5085	-0.294
O 	O 	0.0124	0.1293	0.57565	-0.313
O 	O 	0.0442	0.1817	0.4721	-0.409
O 	O 	0.1289	0.1739	0.51562	-0.382
O 	O 	0.9398	0.0036	0.53779	-0.587
O 	O 	0.1074	0.0906	0.4473	-0.473
O 	O 	0.0931	0.055	0.5532	-0.525
O 	O 	0.9489	0.0439	0.44686	-0.534
O 	O 	0.0845	0.3838	0.0085	-0.295
O 	O 	0.9876	0.3707	0.07565	-0.312
O 	O 	0.9558	0.3183	0.9721	-0.407
O 	O 	0.8711	0.3261	0.01562	-0.383
O 	O 	0.0602	0.4964	0.03779	-0.59
O 	O 	0.8926	0.4094	0.9473	-0.473
O 	O 	0.9069	0.445	0.0532	-0.525
O 	O 	0.0511	0.4561	0.94686	-0.538
N 	N 	0.6038	0.7689	0.7039	0.052
O 	O 	0.5416	0.7611	0.6959	-0.085
O 	O 	0.6249	0.7265	0.7099	-0.088
O 	O 	0.6475	0.8183	0.7087	-0.099
N 	N 	0.782	0.8684	0.0871	0.057
O 	O 	0.7781	0.9051	0.1128	-0.092
O 	O 	0.7363	0.8219	0.0858	-0.089
O 	O 	0.837	0.8811	0.0669	-0.094
N 	N 	0.3962	0.7311	0.2039	0.052
O 	O 	0.4584	0.7389	0.1959	-0.085
O 	O 	0.3751	0.7735	0.2099	-0.088
O 	O 	0.3525	0.6817	0.2087	-0.098
N 	N 	0.218	0.6316	0.5871	0.057
O 	O 	0.2219	0.5949	0.6128	-0.091
O 	O 	0.2637	0.6781	0.5858	-0.088
O 	O 	0.163	0.6189	0.5669	-0.093
N 	N 	0.3962	0.2311	0.2961	0.052
O 	O 	0.4584	0.2389	0.3041	-0.085
O 	O 	0.3751	0.2735	0.2901	-0.088
O 	O 	0.3525	0.1817	0.2913	-0.099
N 	N 	0.218	0.1316	0.9129	0.057
O 	O 	0.2219	0.0949	0.8872	-0.092
O 	O 	0.2637	0.1781	0.9142	-0.089
O 	O 	0.163	0.1189	0.9331	-0.094
N 	N 	0.6038	0.2689	0.7961	0.052
O 	O 	0.5416	0.2611	0.8041	-0.085
O 	O 	0.6249	0.2265	0.7901	-0.088
O 	O 	0.6475	0.3183	0.7913	-0.098
N 	N 	0.782	0.3684	0.4129	0.057
O 	O 	0.7781	0.4051	0.3872	-0.091
O 	O 	0.7363	0.3219	0.4142	-0.088
O 	O 	0.837	0.3811	0.4331	-0.093
_end
