data_functionalizedCrystal
_audit_creation_method	'EQeq! by Chris Wilmer'
_symmetry_space_group_name_H-M	'P1'
_symmetry_Int_Tables_number	1
_symmetry_cell_setting	triclinic
loop_
_symmetry_equiv_pos_as_xyz
  x,y,z
_cell_length_a	30.7816
_cell_length_b	30.7816
_cell_length_c	46.2441
_cell_angle_alpha	109.44
_cell_angle_beta	109.44
_cell_angle_gamma	90.0002
loop_
_atom_site_label
_atom_site_type_symbol
_atom_site_fract_x
_atom_site_fract_y
_atom_site_fract_z
_atom_site_charge
Cu	Cu	0.41777	0.86227	0.77874	0.914
Cu	Cu	0.36097	0.91647	0.77874	0.914
Cu	Cu	0.11227	0.11097	0.27874	0.915
Cu	Cu	0.16647	0.16777	0.27874	0.915
Cu	Cu	0.88903	0.88773	0.72126	0.915
Cu	Cu	0.83223	0.83353	0.72126	0.915
Cu	Cu	0.08353	0.63903	0.22126	0.915
Cu	Cu	0.13773	0.58223	0.22126	0.915
H 	H 	0.6057	0.0107	0.8884	0.085
H 	H 	0.5473	0.9517	0.8504	0.027
H 	H 	0.4535	0.0424	0.8532	0.025
H 	H 	0.512	0.1014	0.8912	0.088
H 	H 	0.764	0.9873	0.8342	0.092
H 	H 	0.7731	0.9268	0.7914	0.011
H 	H 	0.8838	0.0029	0.7972	0.02
H 	H 	0.8747	0.0633	0.84	0.091
H 	H 	0.6483	0.1682	0.9718	0.107
H 	H 	0.7083	0.0809	0.897	0.062
H 	H 	0.8369	0.1418	0.9228	0.058
H 	H 	0.8266	0.1991	0.968	0.057
H 	H 	0.6549	0.0694	0.9066	0.047
H 	H 	0.5929	0.1286	0.9286	0.071
H 	H 	0.7536	0.0411	0.8648	0.048
H 	H 	0.8379	0.0984	0.8806	0.067
H 	H 	0.2827	0.8777	0.8884	0.085
H 	H 	0.3031	0.8987	0.8504	0.027
H 	H 	0.3997	0.8108	0.8532	0.025
H 	H 	0.3792	0.7898	0.8912	0.088
H 	H 	0.0702	0.8469	0.8342	0.091
H 	H 	0.0183	0.8646	0.7914	0.012
H 	H 	0.9134	0.7943	0.7972	0.019
H 	H 	0.9653	0.7767	0.84	0.091
H 	H 	0.3235	0.8036	0.9718	0.107
H 	H 	0.1887	0.8161	0.897	0.062
H 	H 	0.0859	0.781	0.9228	0.058
H 	H 	0.1414	0.7689	0.968	0.057
H 	H 	0.2517	0.8372	0.9066	0.047
H 	H 	0.3357	0.8	0.9286	0.071
H 	H 	0.1112	0.8237	0.8648	0.048
H 	H 	0.0427	0.7822	0.8806	0.067
H 	H 	0.2607	0.0327	0.3884	0.085
H 	H 	0.2017	0.0531	0.3504	0.027
H 	H 	0.2924	0.1497	0.3532	0.025
H 	H 	0.3514	0.1292	0.3912	0.088
H 	H 	0.2373	0.8202	0.3342	0.092
H 	H 	0.1768	0.7683	0.2914	0.011
H 	H 	0.2529	0.6634	0.2972	0.019
H 	H 	0.3133	0.7153	0.34	0.091
H 	H 	0.4182	0.0735	0.4718	0.108
H 	H 	0.3309	0.9387	0.397	0.061
H 	H 	0.3918	0.8359	0.4228	0.057
H 	H 	0.4491	0.8914	0.468	0.057
H 	H 	0.3194	0.0017	0.4066	0.047
H 	H 	0.3786	0.0857	0.4286	0.071
H 	H 	0.2911	0.8612	0.3648	0.047
H 	H 	0.3484	0.7927	0.3806	0.068
H 	H 	0.1277	0.3557	0.3884	0.085
H 	H 	0.1487	0.2973	0.3504	0.027
H 	H 	0.0608	0.2035	0.3532	0.025
H 	H 	0.0398	0.262	0.3912	0.088
H 	H 	0.0969	0.514	0.3342	0.092
H 	H 	0.1146	0.5231	0.2914	0.011
H 	H 	0.0443	0.6338	0.2972	0.019
H 	H 	0.0267	0.6247	0.34	0.091
H 	H 	0.0536	0.3983	0.4718	0.107
H 	H 	0.0661	0.4583	0.397	0.062
H 	H 	0.031	0.5869	0.4228	0.058
H 	H 	0.0189	0.5766	0.468	0.057
H 	H 	0.0872	0.4049	0.4066	0.047
H 	H 	0.05	0.3429	0.4286	0.071
H 	H 	0.0737	0.5036	0.3648	0.048
H 	H 	0.0322	0.5879	0.3806	0.067
H 	H 	0.9673	0.7393	0.6116	0.085
H 	H 	0.9469	0.7983	0.6496	0.027
H 	H 	0.8503	0.7076	0.6468	0.025
H 	H 	0.8708	0.6486	0.6088	0.088
H 	H 	0.1798	0.7627	0.6658	0.092
H 	H 	0.2317	0.8232	0.7086	0.011
H 	H 	0.3366	0.7471	0.7028	0.019
H 	H 	0.2847	0.6867	0.66	0.091
H 	H 	0.9265	0.5818	0.5282	0.108
H 	H 	0.0613	0.6691	0.603	0.061
H 	H 	0.1641	0.6082	0.5772	0.057
H 	H 	0.1086	0.5509	0.532	0.057
H 	H 	0.9983	0.6806	0.5934	0.047
H 	H 	0.9143	0.6214	0.5714	0.071
H 	H 	0.1388	0.7089	0.6352	0.047
H 	H 	0.2073	0.6516	0.6194	0.068
H 	H 	0.6443	0.8723	0.6116	0.085
H 	H 	0.7027	0.8513	0.6496	0.027
H 	H 	0.7965	0.9392	0.6468	0.025
H 	H 	0.738	0.9602	0.6088	0.088
H 	H 	0.486	0.9031	0.6658	0.092
H 	H 	0.4769	0.8854	0.7086	0.011
H 	H 	0.3662	0.9557	0.7028	0.019
H 	H 	0.3753	0.9733	0.66	0.091
H 	H 	0.6017	0.9464	0.5282	0.107
H 	H 	0.5417	0.9339	0.603	0.062
H 	H 	0.4131	0.969	0.5772	0.058
H 	H 	0.4234	0.9811	0.532	0.057
H 	H 	0.5951	0.9128	0.5934	0.047
H 	H 	0.6571	0.95	0.5714	0.071
H 	H 	0.4964	0.9263	0.6352	0.048
H 	H 	0.4121	0.9678	0.6194	0.067
H 	H 	0.1223	0.7173	0.1116	0.085
H 	H 	0.1013	0.6969	0.1496	0.027
H 	H 	0.1892	0.6003	0.1468	0.025
H 	H 	0.2102	0.6208	0.1088	0.088
H 	H 	0.1531	0.9298	0.1658	0.091
H 	H 	0.1354	0.9817	0.2086	0.012
H 	H 	0.2057	0.0866	0.2028	0.019
H 	H 	0.2233	0.0347	0.16	0.091
H 	H 	0.1964	0.6765	0.0282	0.107
H 	H 	0.1839	0.8113	0.103	0.062
H 	H 	0.219	0.9141	0.0772	0.058
H 	H 	0.2311	0.8586	0.032	0.057
H 	H 	0.1628	0.7483	0.0934	0.047
H 	H 	0.2	0.6643	0.0714	0.071
H 	H 	0.1763	0.8888	0.1352	0.048
H 	H 	0.2178	0.9573	0.1194	0.067
H 	H 	0.9893	0.3943	0.1116	0.085
H 	H 	0.0483	0.4527	0.1496	0.027
H 	H 	0.9576	0.5465	0.1468	0.025
H 	H 	0.8986	0.488	0.1088	0.088
H 	H 	0.0127	0.236	0.1658	0.092
H 	H 	0.0732	0.2269	0.2086	0.011
H 	H 	0.9971	0.1162	0.2028	0.02
H 	H 	0.9367	0.1253	0.16	0.091
H 	H 	0.8318	0.3517	0.0282	0.107
H 	H 	0.9191	0.2917	0.103	0.062
H 	H 	0.8582	0.1631	0.0772	0.058
H 	H 	0.8009	0.1734	0.032	0.057
H 	H 	0.9306	0.3451	0.0934	0.047
H 	H 	0.8714	0.4071	0.0714	0.071
H 	H 	0.9589	0.2464	0.1352	0.048
H 	H 	0.9016	0.1621	0.1194	0.067
C 	C 	0.56464	0.06184	0.89348	0.115
C 	C 	0.5752	0.0171	0.8814	-0.149
C 	C 	0.5402	0.9817	0.8586	0.06
C 	C 	0.49463	0.99123	0.84806	-0.114
C 	C 	0.484	0.036	0.8602	0.062
C 	C 	0.519	0.0714	0.883	-0.151
C 	C 	0.4549	0.9514	0.8228	0.366
C 	C 	0.81839	0.03129	0.84138	0.126
C 	C 	0.788	0.9904	0.8268	-0.172
C 	C 	0.7935	0.9542	0.8012	0.095
C 	C 	0.82934	0.95884	0.79008	-0.16
C 	C 	0.8598	0.9997	0.8046	0.086
C 	C 	0.8543	0.0359	0.8302	-0.166
C 	C 	0.8386	0.9234	0.7634	0.383
C 	C 	0.75379	0.20819	0.98598	-0.043
C 	C 	0.71153	0.20583	0.99046	0.176
C 	C 	0.6765	0.1698	0.9688	-0.173
C 	C 	0.68398	0.13608	0.94276	0.061
C 	C 	0.72625	0.13845	0.9383	-0.008
C 	C 	0.7611	0.1744	0.9598	0.033
C 	C 	0.7325	0.1043	0.9112	-0.089
C 	C 	0.7743	0.1048	0.9052	0.056
C 	C 	0.809	0.1404	0.9264	-0.073
C 	C 	0.8025	0.1753	0.9538	-0.048
C 	C 	0.6471	0.0966	0.9192	-0.052
C 	C 	0.6008	0.1013	0.9164	-0.102
C 	C 	0.7763	0.0666	0.8768	-0.054
C 	C 	0.8158	0.0723	0.8694	-0.103
C 	C 	0.32884	0.83164	0.89348	0.115
C 	C 	0.3062	0.8643	0.8814	-0.15
C 	C 	0.3184	0.8769	0.8586	0.06
C 	C 	0.35343	0.85683	0.84806	-0.114
C 	C 	0.3762	0.8242	0.8602	0.061
C 	C 	0.364	0.8116	0.883	-0.151
C 	C 	0.3679	0.8714	0.8228	0.366
C 	C 	0.02299	0.81009	0.84138	0.125
C 	C 	0.0388	0.8364	0.8268	-0.17
C 	C 	0.0077	0.847	0.8012	0.093
C 	C 	0.96074	0.83124	0.79008	-0.159
C 	C 	0.9448	0.8049	0.8046	0.087
C 	C 	0.9759	0.7943	0.8302	-0.166
C 	C 	0.9248	0.84	0.7634	0.382
C 	C 	0.23219	0.77779	0.98598	-0.043
C 	C 	0.27893	0.78463	0.99046	0.176
C 	C 	0.2923	0.799	0.9688	-0.173
C 	C 	0.25878	0.80668	0.94276	0.061
C 	C 	0.21205	0.79985	0.9383	-0.008
C 	C 	0.1987	0.7854	0.9598	0.033
C 	C 	0.1787	0.8069	0.9112	-0.089
C 	C 	0.1309	0.8004	0.9052	0.056
C 	C 	0.1174	0.786	0.9264	-0.073
C 	C 	0.1513	0.7785	0.9538	-0.048
C 	C 	0.2721	0.8226	0.9192	-0.052
C 	C 	0.3156	0.8151	0.9164	-0.102
C 	C 	0.1005	0.8102	0.8768	-0.054
C 	C 	0.0536	0.7971	0.8694	-0.103
C 	C 	0.31184	0.07884	0.39348	0.115
C 	C 	0.2671	0.0562	0.3814	-0.149
C 	C 	0.2317	0.0684	0.3586	0.06
C 	C 	0.24123	0.10343	0.34806	-0.114
C 	C 	0.286	0.1262	0.3602	0.061
C 	C 	0.3214	0.114	0.383	-0.151
C 	C 	0.2014	0.1179	0.3228	0.366
C 	C 	0.28129	0.77299	0.34138	0.126
C 	C 	0.2404	0.7888	0.3268	-0.172
C 	C 	0.2042	0.7577	0.3012	0.095
C 	C 	0.20884	0.71074	0.29008	-0.16
C 	C 	0.2497	0.6948	0.3046	0.088
C 	C 	0.2859	0.7259	0.3302	-0.167
C 	C 	0.1734	0.6748	0.2634	0.383
C 	C 	0.45819	0.98219	0.48598	-0.044
C 	C 	0.45583	0.02893	0.49046	0.177
C 	C 	0.4198	0.0423	0.4688	-0.174
C 	C 	0.38608	0.00878	0.44276	0.062
C 	C 	0.38845	0.96205	0.4383	-0.009
C 	C 	0.4244	0.9487	0.4598	0.034
C 	C 	0.3543	0.9287	0.4112	-0.088
C 	C 	0.3548	0.8809	0.4052	0.055
C 	C 	0.3904	0.8674	0.4264	-0.073
C 	C 	0.4253	0.9013	0.4538	-0.049
C 	C 	0.3466	0.0221	0.4192	-0.052
C 	C 	0.3513	0.0656	0.4164	-0.102
C 	C 	0.3166	0.8505	0.3768	-0.054
C 	C 	0.3223	0.8036	0.3694	-0.103
C 	C 	0.08164	0.31464	0.39348	0.115
C 	C 	0.1143	0.3252	0.3814	-0.15
C 	C 	0.1269	0.2902	0.3586	0.06
C 	C 	0.10683	0.24463	0.34806	-0.114
C 	C 	0.0742	0.234	0.3602	0.061
C 	C 	0.0616	0.269	0.383	-0.151
C 	C 	0.1214	0.2049	0.3228	0.366
C 	C 	0.06009	0.56839	0.34138	0.126
C 	C 	0.0864	0.538	0.3268	-0.172
C 	C 	0.097	0.5435	0.3012	0.095
C 	C 	0.08124	0.57934	0.29008	-0.16
C 	C 	0.0549	0.6098	0.3046	0.088
C 	C 	0.0443	0.6043	0.3302	-0.167
C 	C 	0.09	0.5886	0.2634	0.383
C 	C 	0.02779	0.50379	0.48598	-0.043
C 	C 	0.03463	0.46153	0.49046	0.176
C 	C 	0.049	0.4265	0.4688	-0.173
C 	C 	0.05668	0.43398	0.44276	0.061
C 	C 	0.04985	0.47625	0.4383	-0.008
C 	C 	0.0354	0.5111	0.4598	0.033
C 	C 	0.0569	0.4825	0.4112	-0.089
C 	C 	0.0504	0.5243	0.4052	0.056
C 	C 	0.036	0.559	0.4264	-0.073
C 	C 	0.0285	0.5525	0.4538	-0.048
C 	C 	0.0726	0.3971	0.4192	-0.052
C 	C 	0.0651	0.3508	0.4164	-0.102
C 	C 	0.0602	0.5263	0.3768	-0.054
C 	C 	0.0471	0.5658	0.3694	-0.103
C 	C 	0.92116	0.68816	0.60652	0.115
C 	C 	0.9438	0.7329	0.6186	-0.149
C 	C 	0.9316	0.7683	0.6414	0.06
C 	C 	0.89657	0.75877	0.65194	-0.114
C 	C 	0.8738	0.714	0.6398	0.061
C 	C 	0.886	0.6786	0.617	-0.151
C 	C 	0.8821	0.7986	0.6772	0.366
C 	C 	0.22701	0.71871	0.65862	0.126
C 	C 	0.2112	0.7596	0.6732	-0.172
C 	C 	0.2423	0.7958	0.6988	0.095
C 	C 	0.28926	0.79116	0.70992	-0.16
C 	C 	0.3052	0.7503	0.6954	0.088
C 	C 	0.2741	0.7141	0.6698	-0.167
C 	C 	0.3252	0.8266	0.7366	0.383
C 	C 	0.01781	0.54181	0.51402	-0.044
C 	C 	0.97107	0.54417	0.50954	0.177
C 	C 	0.9577	0.5802	0.5312	-0.174
C 	C 	0.99122	0.61392	0.55724	0.062
C 	C 	0.03795	0.61155	0.5617	-0.009
C 	C 	0.0513	0.5756	0.5402	0.034
C 	C 	0.0713	0.6457	0.5888	-0.088
C 	C 	0.1191	0.6452	0.5948	0.055
C 	C 	0.1326	0.6096	0.5736	-0.073
C 	C 	0.0987	0.5747	0.5462	-0.049
C 	C 	0.9779	0.6534	0.5808	-0.052
C 	C 	0.9344	0.6487	0.5836	-0.102
C 	C 	0.1495	0.6834	0.6232	-0.054
C 	C 	0.1964	0.6777	0.6306	-0.103
C 	C 	0.68536	0.91836	0.60652	0.115
C 	C 	0.6748	0.8857	0.6186	-0.15
C 	C 	0.7098	0.8731	0.6414	0.06
C 	C 	0.75537	0.89317	0.65194	-0.114
C 	C 	0.766	0.9258	0.6398	0.061
C 	C 	0.731	0.9384	0.617	-0.151
C 	C 	0.7951	0.8786	0.6772	0.366
C 	C 	0.43161	0.93991	0.65862	0.126
C 	C 	0.462	0.9136	0.6732	-0.172
C 	C 	0.4565	0.903	0.6988	0.095
C 	C 	0.42066	0.91876	0.70992	-0.16
C 	C 	0.3902	0.9451	0.6954	0.088
C 	C 	0.3957	0.9557	0.6698	-0.167
C 	C 	0.4114	0.91	0.7366	0.383
C 	C 	0.49621	0.97221	0.51402	-0.043
C 	C 	0.53847	0.96537	0.50954	0.176
C 	C 	0.5735	0.951	0.5312	-0.173
C 	C 	0.56602	0.94332	0.55724	0.061
C 	C 	0.52375	0.95015	0.5617	-0.008
C 	C 	0.4889	0.9646	0.5402	0.033
C 	C 	0.5175	0.9431	0.5888	-0.089
C 	C 	0.4757	0.9496	0.5948	0.056
C 	C 	0.441	0.964	0.5736	-0.073
C 	C 	0.4475	0.9715	0.5462	-0.048
C 	C 	0.6029	0.9274	0.5808	-0.052
C 	C 	0.6492	0.9349	0.5836	-0.102
C 	C 	0.4737	0.9398	0.6232	-0.054
C 	C 	0.4342	0.9529	0.6306	-0.103
C 	C 	0.16836	0.67116	0.10652	0.115
C 	C 	0.1357	0.6938	0.1186	-0.15
C 	C 	0.1231	0.6816	0.1414	0.06
C 	C 	0.14317	0.64657	0.15194	-0.114
C 	C 	0.1758	0.6238	0.1398	0.061
C 	C 	0.1884	0.636	0.117	-0.151
C 	C 	0.1286	0.6321	0.1772	0.366
C 	C 	0.18991	0.97701	0.15862	0.125
C 	C 	0.1636	0.9612	0.1732	-0.17
C 	C 	0.153	0.9923	0.1988	0.093
C 	C 	0.16876	0.03926	0.20992	-0.159
C 	C 	0.1951	0.0552	0.1954	0.087
C 	C 	0.2057	0.0241	0.1698	-0.166
C 	C 	0.16	0.0752	0.2366	0.382
C 	C 	0.22221	0.76781	0.01402	-0.043
C 	C 	0.21537	0.72107	0.00954	0.176
C 	C 	0.201	0.7077	0.0312	-0.173
C 	C 	0.19332	0.74122	0.05724	0.061
C 	C 	0.20015	0.78795	0.0617	-0.008
C 	C 	0.2146	0.8013	0.0402	0.033
C 	C 	0.1931	0.8213	0.0888	-0.089
C 	C 	0.1996	0.8691	0.0948	0.056
C 	C 	0.214	0.8826	0.0736	-0.073
C 	C 	0.2215	0.8487	0.0462	-0.048
C 	C 	0.1774	0.7279	0.0808	-0.052
C 	C 	0.1849	0.6844	0.0836	-0.102
C 	C 	0.1898	0.8995	0.1232	-0.054
C 	C 	0.2029	0.9464	0.1306	-0.103
C 	C 	0.93816	0.43536	0.10652	0.115
C 	C 	0.9829	0.4248	0.1186	-0.149
C 	C 	0.0183	0.4598	0.1414	0.06
C 	C 	0.00877	0.50537	0.15194	-0.114
C 	C 	0.964	0.516	0.1398	0.062
C 	C 	0.9286	0.481	0.117	-0.151
C 	C 	0.0486	0.5451	0.1772	0.366
C 	C 	0.96871	0.18161	0.15862	0.126
C 	C 	0.0096	0.212	0.1732	-0.172
C 	C 	0.0458	0.2065	0.1988	0.095
C 	C 	0.04116	0.17066	0.20992	-0.16
C 	C 	0.0003	0.1402	0.1954	0.086
C 	C 	0.9641	0.1457	0.1698	-0.166
C 	C 	0.0766	0.1614	0.2366	0.383
C 	C 	0.79181	0.24621	0.01402	-0.043
C 	C 	0.79417	0.28847	0.00954	0.176
C 	C 	0.8302	0.3235	0.0312	-0.173
C 	C 	0.86392	0.31602	0.05724	0.061
C 	C 	0.86155	0.27375	0.0617	-0.008
C 	C 	0.8256	0.2389	0.0402	0.033
C 	C 	0.8957	0.2675	0.0888	-0.089
C 	C 	0.8952	0.2257	0.0948	0.056
C 	C 	0.8596	0.191	0.0736	-0.073
C 	C 	0.8247	0.1975	0.0462	-0.048
C 	C 	0.9034	0.3529	0.0808	-0.052
C 	C 	0.8987	0.3992	0.0836	-0.102
C 	C 	0.9334	0.2237	0.1232	-0.054
C 	C 	0.9277	0.1842	0.1306	-0.103
O 	O 	0.466	0.9102	0.814	-0.384
O 	O 	0.4144	0.9589	0.812	-0.418
O 	O 	0.8734	0.9316	0.7554	-0.414
O 	O 	0.8155	0.8838	0.7478	-0.433
O 	O 	0.7034	0.2396	0.0152	-0.182
O 	O 	0.348	0.9038	0.814	-0.384
O 	O 	0.3976	0.8531	0.812	-0.418
O 	O 	0.882	0.8238	0.7554	-0.413
O 	O 	0.9323	0.864	0.7478	-0.433
O 	O 	0.3118	0.7756	0.0152	-0.182
O 	O 	0.1602	0.098	0.314	-0.384
O 	O 	0.2089	0.1476	0.312	-0.418
O 	O 	0.1816	0.632	0.2554	-0.414
O 	O 	0.1338	0.6823	0.2478	-0.433
O 	O 	0.4896	0.0618	0.5152	-0.182
O 	O 	0.1538	0.216	0.314	-0.384
O 	O 	0.1031	0.1644	0.312	-0.418
O 	O 	0.0738	0.6234	0.2554	-0.414
O 	O 	0.114	0.5655	0.2478	-0.433
O 	O 	0.0256	0.4534	0.5152	-0.182
O 	O 	0.902	0.8398	0.686	-0.384
O 	O 	0.8524	0.7911	0.688	-0.418
O 	O 	0.368	0.8184	0.7446	-0.414
O 	O 	0.3177	0.8662	0.7522	-0.433
O 	O 	0.9382	0.5104	0.4848	-0.182
O 	O 	0.784	0.8462	0.686	-0.384
O 	O 	0.8356	0.8969	0.688	-0.418
O 	O 	0.3766	0.9262	0.7446	-0.414
O 	O 	0.4345	0.886	0.7522	-0.433
O 	O 	0.5466	0.9744	0.4848	-0.182
O 	O 	0.0962	0.652	0.186	-0.384
O 	O 	0.1469	0.6024	0.188	-0.418
O 	O 	0.1762	0.118	0.2446	-0.413
O 	O 	0.136	0.0677	0.2522	-0.433
O 	O 	0.2244	0.6882	0.9848	-0.182
O 	O 	0.0898	0.534	0.186	-0.384
O 	O 	0.0411	0.5856	0.188	-0.418
O 	O 	0.0684	0.1266	0.2446	-0.414
O 	O 	0.1162	0.1845	0.2522	-0.433
O 	O 	0.7604	0.2966	0.9848	-0.182
_end
