data_functionalizedCrystal
_audit_creation_method	'EQeq! by Chris Wilmer'
_symmetry_space_group_name_H-M	'P1'
_symmetry_Int_Tables_number	1
_symmetry_cell_setting	triclinic
loop_
_symmetry_equiv_pos_as_xyz
  x,y,z
_cell_length_a	16.991000
_cell_length_b	16.991000
_cell_length_c	16.991000
_cell_angle_alpha	90.000000
_cell_angle_beta	90.000000
_cell_angle_gamma	90.000000
loop_
_atom_site_label
_atom_site_type_symbol
_atom_site_fract_x
_atom_site_fract_y
_atom_site_fract_z
_atom_site_charge
C 	C 	0.368513	0.899141	0.687499	-0.010000
H 	H 	0.377700	0.858902	0.723401	-0.004000
N 	N 	0.409729	0.968319	0.682779	-0.202000
C 	C 	0.868513	0.399141	0.187499	-0.015000
H 	H 	0.877700	0.358902	0.223401	0.001000
N 	N 	0.909729	0.468319	0.182779	-0.297000
C 	C 	0.631487	0.100859	0.687499	-0.030000
H 	H 	0.622300	0.141098	0.723401	-0.006000
H 	H 	0.541298	0.920199	0.574298	0.332000
H 	H 	0.594203	0.877200	0.636402	0.317000
H 	H 	0.627603	0.896098	0.552498	0.311000
N 	N 	0.590271	0.031681	0.682779	-0.435000
C 	C 	0.131487	0.600859	0.187499	-0.037000
H 	H 	0.122300	0.641098	0.223401	-0.021000
N 	N 	0.090271	0.531681	0.182779	-0.328000
C 	C 	0.631487	0.899141	0.312501	-0.010000
H 	H 	0.622300	0.858902	0.276599	-0.002000
N 	N 	0.590271	0.968319	0.317221	-0.201000
C 	C 	0.131487	0.399141	0.812501	-0.031000
H 	H 	0.122300	0.358902	0.776599	-0.016000
N 	N 	0.090271	0.468319	0.817221	-0.341000
C 	C 	0.368513	0.100859	0.312501	-0.036000
H 	H 	0.377700	0.141098	0.276599	-0.007000
H 	H 	0.458702	0.920199	0.425702	0.332000
H 	H 	0.405797	0.877200	0.363598	0.315000
H 	H 	0.372397	0.896098	0.447502	0.311000
N 	N 	0.409729	0.031681	0.317221	-0.435000
C 	C 	0.868513	0.600859	0.812501	-0.005000
H 	H 	0.877700	0.641098	0.776599	0.017000
H 	H 	0.958702	0.420199	0.925702	0.356000
H 	H 	0.905797	0.377200	0.863598	0.309000
H 	H 	0.872397	0.396098	0.947502	0.318000
N 	N 	0.909729	0.531681	0.817221	-0.307000
C 	C 	0.687499	0.368513	0.899141	-0.010000
H 	H 	0.723401	0.377700	0.858902	-0.003000
N 	N 	0.682779	0.409729	0.968319	-0.202000
C 	C 	0.187499	0.868513	0.399141	-0.014000
H 	H 	0.223401	0.877700	0.358902	0.002000
N 	N 	0.182779	0.909729	0.468319	-0.297000
C 	C 	0.687499	0.631487	0.100859	-0.029000
H 	H 	0.723401	0.622300	0.141098	-0.007000
N 	N 	0.682779	0.590271	0.031681	-0.435000
C 	C 	0.187499	0.131487	0.600859	-0.036000
H 	H 	0.223401	0.122300	0.641098	-0.021000
N 	N 	0.182779	0.090271	0.531681	-0.328000
C 	C 	0.312501	0.631487	0.899141	-0.011000
H 	H 	0.276599	0.622300	0.858902	-0.005000
H 	H 	0.425702	0.541298	0.079801	0.103000
H 	H 	0.363598	0.594203	0.122800	0.126000
H 	H 	0.447502	0.627603	0.103902	0.107000
N 	N 	0.317221	0.590271	0.968319	-0.201000
C 	C 	0.812501	0.131487	0.399141	-0.031000
H 	H 	0.776599	0.122300	0.358902	-0.018000
H 	H 	0.925702	0.041298	0.579801	0.208000
H 	H 	0.863598	0.094203	0.622800	0.217000
H 	H 	0.947502	0.127603	0.603902	0.240000
N 	N 	0.817221	0.090271	0.468319	-0.341000
C 	C 	0.312501	0.368513	0.100859	-0.036000
H 	H 	0.276599	0.377700	0.141098	-0.009000
H 	H 	0.425702	0.458702	0.920199	0.329000
H 	H 	0.363598	0.405797	0.877200	0.313000
H 	H 	0.447502	0.372397	0.896098	0.310000
N 	N 	0.317221	0.409729	0.031681	-0.435000
C 	C 	0.812501	0.868513	0.600859	-0.006000
H 	H 	0.776599	0.877700	0.641098	0.017000
H 	H 	0.925702	0.958702	0.420199	0.355000
H 	H 	0.863598	0.905797	0.377200	0.309000
H 	H 	0.947502	0.872397	0.396098	0.318000
N 	N 	0.817221	0.909729	0.531681	-0.307000
C 	C 	0.899141	0.687499	0.368513	-0.009000
H 	H 	0.858902	0.723401	0.377700	-0.003000
N 	N 	0.968319	0.682779	0.409729	-0.201000
C 	C 	0.399141	0.187499	0.868513	-0.014000
H 	H 	0.358902	0.223401	0.877700	0.002000
N 	N 	0.468319	0.182779	0.909729	-0.297000
C 	C 	0.100859	0.687499	0.631487	-0.029000
H 	H 	0.141098	0.723401	0.622300	-0.006000
H 	H 	0.920199	0.574298	0.541298	0.333000
H 	H 	0.877200	0.636402	0.594203	0.317000
H 	H 	0.896098	0.552498	0.627603	0.312000
N 	N 	0.031681	0.682779	0.590271	-0.435000
C 	C 	0.600859	0.187499	0.131487	-0.036000
H 	H 	0.641098	0.223401	0.122300	-0.021000
H 	H 	0.420199	0.074298	0.041298	0.073000
H 	H 	0.377200	0.136402	0.094203	0.119000
H 	H 	0.396098	0.052498	0.127603	0.088000
N 	N 	0.531681	0.182779	0.090271	-0.329000
C 	C 	0.899141	0.312501	0.631487	-0.010000
H 	H 	0.858902	0.276599	0.622300	-0.002000
H 	H 	0.079801	0.425702	0.541298	0.105000
H 	H 	0.122800	0.363598	0.594203	0.126000
H 	H 	0.103902	0.447502	0.627603	0.108000
N 	N 	0.968319	0.317221	0.590271	-0.201000
C 	C 	0.399141	0.812501	0.131487	-0.030000
H 	H 	0.358902	0.776599	0.122300	-0.016000
H 	H 	0.579801	0.925702	0.041298	0.208000
H 	H 	0.622800	0.863598	0.094203	0.218000
H 	H 	0.603902	0.947502	0.127603	0.240000
N 	N 	0.468319	0.817221	0.090271	-0.341000
C 	C 	0.100859	0.312501	0.368513	-0.036000
H 	H 	0.141098	0.276599	0.377700	-0.009000
H 	H 	0.920199	0.425702	0.458702	0.331000
H 	H 	0.877200	0.363598	0.405797	0.315000
H 	H 	0.896098	0.447502	0.372397	0.310000
N 	N 	0.031681	0.317221	0.409729	-0.435000
C 	C 	0.600859	0.812501	0.868513	-0.005000
H 	H 	0.641098	0.776599	0.877700	0.013000
H 	H 	0.420199	0.925702	0.958702	0.355000
H 	H 	0.377200	0.863598	0.905797	0.309000
H 	H 	0.396098	0.947502	0.872397	0.318000
N 	N 	0.531681	0.817221	0.909729	-0.306000
C 	C 	0.899141	0.368513	0.687499	-0.011000
H 	H 	0.858902	0.377700	0.723401	-0.007000
N 	N 	0.968319	0.409729	0.682779	-0.202000
C 	C 	0.399141	0.868513	0.187499	-0.015000
H 	H 	0.358902	0.877700	0.223401	-0.002000
N 	N 	0.468319	0.909729	0.182779	-0.297000
C 	C 	0.100859	0.631487	0.687499	-0.029000
H 	H 	0.141098	0.622300	0.723401	-0.003000
N 	N 	0.031681	0.590271	0.682779	-0.435000
C 	C 	0.600859	0.131487	0.187499	-0.036000
H 	H 	0.641098	0.122300	0.223401	-0.019000
N 	N 	0.531681	0.090271	0.182779	-0.329000
C 	C 	0.899141	0.631487	0.312501	-0.012000
H 	H 	0.858902	0.622300	0.276599	-0.003000
H 	H 	0.079801	0.541298	0.425702	0.106000
H 	H 	0.122800	0.594203	0.363598	0.127000
H 	H 	0.103902	0.627603	0.447502	0.108000
N 	N 	0.968319	0.590271	0.317221	-0.202000
C 	C 	0.399141	0.131487	0.812501	-0.031000
H 	H 	0.358902	0.122300	0.776599	-0.017000
H 	H 	0.579801	0.041298	0.925702	0.211000
H 	H 	0.622800	0.094203	0.863598	0.219000
H 	H 	0.603902	0.127603	0.947502	0.241000
N 	N 	0.468319	0.090271	0.817221	-0.342000
C 	C 	0.100859	0.368513	0.312501	-0.035000
H 	H 	0.141098	0.377700	0.276599	-0.007000
N 	N 	0.031681	0.409729	0.317221	-0.435000
C 	C 	0.600859	0.868513	0.812501	-0.005000
H 	H 	0.641098	0.877700	0.776599	0.013000
N 	N 	0.531681	0.909729	0.817221	-0.306000
C 	C 	0.368513	0.687499	0.899141	-0.011000
H 	H 	0.377700	0.723401	0.858902	-0.006000
N 	N 	0.409729	0.682779	0.968319	-0.200000
C 	C 	0.868513	0.187499	0.399141	-0.015000
H 	H 	0.877700	0.223401	0.358902	-0.002000
N 	N 	0.909729	0.182779	0.468319	-0.296000
C 	C 	0.631487	0.687499	0.100859	-0.030000
H 	H 	0.622300	0.723401	0.141098	-0.006000
H 	H 	0.541298	0.574298	0.920199	0.331000
H 	H 	0.594203	0.636402	0.877200	0.316000
H 	H 	0.627603	0.552498	0.896098	0.312000
N 	N 	0.590271	0.682779	0.031681	-0.435000
C 	C 	0.131487	0.187499	0.600859	-0.036000
H 	H 	0.122300	0.223401	0.641098	-0.021000
H 	H 	0.041298	0.074298	0.420199	0.070000
H 	H 	0.094203	0.136402	0.377200	0.118000
H 	H 	0.127603	0.052498	0.396098	0.088000
N 	N 	0.090271	0.182779	0.531681	-0.329000
C 	C 	0.631487	0.312501	0.899141	-0.010000
H 	H 	0.622300	0.276599	0.858902	-0.003000
H 	H 	0.541298	0.425702	0.079801	0.108000
H 	H 	0.594203	0.363598	0.122800	0.128000
H 	H 	0.627603	0.447502	0.103902	0.109000
N 	N 	0.590271	0.317221	0.968319	-0.203000
C 	C 	0.131487	0.812501	0.399141	-0.031000
H 	H 	0.122300	0.776599	0.358902	-0.017000
H 	H 	0.041298	0.925702	0.579801	0.212000
H 	H 	0.094203	0.863598	0.622800	0.219000
H 	H 	0.127603	0.947502	0.603902	0.242000
N 	N 	0.090271	0.817221	0.468319	-0.342000
C 	C 	0.368513	0.312501	0.100859	-0.036000
H 	H 	0.377700	0.276599	0.141098	-0.009000
N 	N 	0.409729	0.317221	0.031681	-0.435000
C 	C 	0.868513	0.812501	0.600859	-0.004000
H 	H 	0.877700	0.776599	0.641098	0.013000
N 	N 	0.909729	0.817221	0.531681	-0.306000
C 	C 	0.687499	0.899141	0.368513	-0.011000
H 	H 	0.723401	0.858902	0.377700	-0.007000
H 	H 	0.574298	0.079801	0.458702	0.106000
H 	H 	0.636402	0.122800	0.405797	0.127000
H 	H 	0.552498	0.103902	0.372397	0.108000
N 	N 	0.682779	0.968319	0.409729	-0.202000
C 	C 	0.187499	0.399141	0.868513	-0.015000
H 	H 	0.223401	0.358902	0.877700	-0.002000
H 	H 	0.074298	0.579801	0.958702	0.239000
H 	H 	0.136402	0.622800	0.905797	0.239000
H 	H 	0.052498	0.603902	0.872397	0.192000
N 	N 	0.182779	0.468319	0.909729	-0.297000
C 	C 	0.687499	0.100859	0.631487	-0.029000
H 	H 	0.723401	0.141098	0.622300	-0.006000
N 	N 	0.682779	0.031681	0.590271	-0.435000
C 	C 	0.187499	0.600859	0.131487	-0.035000
H 	H 	0.223401	0.641098	0.122300	-0.021000
H 	H 	0.074298	0.420199	0.041298	0.067000
H 	H 	0.136402	0.377200	0.094203	0.116000
H 	H 	0.052498	0.396098	0.127603	0.087000
N 	N 	0.182779	0.531681	0.090271	-0.328000
C 	C 	0.312501	0.899141	0.631487	-0.012000
H 	H 	0.276599	0.858902	0.622300	-0.003000
H 	H 	0.425702	0.079801	0.541298	0.107000
H 	H 	0.363598	0.122800	0.594203	0.127000
H 	H 	0.447502	0.103902	0.627603	0.108000
N 	N 	0.317221	0.968319	0.590271	-0.202000
C 	C 	0.812501	0.399141	0.131487	-0.031000
H 	H 	0.776599	0.358902	0.122300	-0.017000
H 	H 	0.925702	0.579801	0.041298	0.212000
H 	H 	0.863598	0.622800	0.094203	0.219000
H 	H 	0.947502	0.603902	0.127603	0.241000
N 	N 	0.817221	0.468319	0.090271	-0.342000
C 	C 	0.312501	0.100859	0.368513	-0.034000
H 	H 	0.276599	0.141098	0.377700	-0.008000
N 	N 	0.317221	0.031681	0.409729	-0.435000
C 	C 	0.812501	0.600859	0.868513	-0.003000
H 	H 	0.776599	0.641098	0.877700	0.017000
N 	N 	0.817221	0.531681	0.909729	-0.307000
C 	C 	0.377053	0.007898	0.622947	-0.038000
C 	C 	0.406097	0.085498	0.593903	-0.479000
C 	C 	0.877053	0.507898	0.122947	0.261000
C 	C 	0.906097	0.585498	0.093903	-0.792000
C 	C 	0.622947	0.992102	0.622947	0.550000
C 	C 	0.593903	0.914502	0.593903	-1.081000
C 	C 	0.122947	0.492102	0.122947	0.159000
C 	C 	0.093903	0.414502	0.093903	-0.537000
C 	C 	0.622947	0.007898	0.377053	-0.038000
C 	C 	0.593903	0.085498	0.406097	-0.478000
C 	C 	0.122947	0.507898	0.877053	0.256000
C 	C 	0.093903	0.585498	0.906097	-0.792000
C 	C 	0.377053	0.992102	0.377053	0.545000
C 	C 	0.406097	0.914502	0.406097	-1.079000
C 	C 	0.877053	0.492102	0.877053	0.342000
C 	C 	0.906097	0.414502	0.906097	-0.990000
C 	C 	0.622947	0.377053	0.007898	-0.034000
C 	C 	0.593903	0.406097	0.085498	-0.480000
C 	C 	0.122947	0.877053	0.507898	0.261000
C 	C 	0.093903	0.906097	0.585498	-0.792000
C 	C 	0.622947	0.622947	0.992102	0.550000
C 	C 	0.593903	0.593903	0.914502	-1.078000
C 	C 	0.122947	0.122947	0.492102	0.163000
C 	C 	0.093903	0.093903	0.414502	-0.541000
C 	C 	0.377053	0.622947	0.007898	-0.042000
C 	C 	0.406097	0.593903	0.085498	-0.474000
C 	C 	0.877053	0.122947	0.507898	0.255000
C 	C 	0.906097	0.093903	0.585498	-0.787000
C 	C 	0.377053	0.377053	0.992102	0.543000
C 	C 	0.406097	0.406097	0.914502	-1.074000
C 	C 	0.877053	0.877053	0.492102	0.340000
C 	C 	0.906097	0.906097	0.414502	-0.989000
C 	C 	0.007898	0.622947	0.377053	-0.038000
C 	C 	0.085498	0.593903	0.406097	-0.478000
C 	C 	0.507898	0.122947	0.877053	0.260000
C 	C 	0.585498	0.093903	0.906097	-0.791000
C 	C 	0.992102	0.622947	0.622947	0.551000
C 	C 	0.914502	0.593903	0.593903	-1.082000
C 	C 	0.492102	0.122947	0.122947	0.164000
C 	C 	0.414502	0.093903	0.093903	-0.545000
C 	C 	0.007898	0.377053	0.622947	-0.038000
C 	C 	0.085498	0.406097	0.593903	-0.476000
C 	C 	0.507898	0.877053	0.122947	0.256000
C 	C 	0.585498	0.906097	0.093903	-0.787000
C 	C 	0.992102	0.377053	0.377053	0.544000
C 	C 	0.914502	0.406097	0.406097	-1.078000
C 	C 	0.492102	0.877053	0.877053	0.341000
C 	C 	0.414502	0.906097	0.906097	-0.989000
Zn	Zn	0.500000	-0.000000	0.749997	1.130000
Zn	Zn	0.500000	-0.000000	0.249997	1.129000
Zn	Zn	0.749997	0.500000	0.000000	1.130000
Zn	Zn	0.249997	0.500000	0.000000	1.130000
Zn	Zn	-0.000000	0.749997	0.500000	1.130000
Zn	Zn	-0.000000	0.249997	0.500000	1.129000
Zn	Zn	-0.000000	0.500000	0.749997	1.130000
Zn	Zn	-0.000000	0.500000	0.249997	1.128000
Zn	Zn	0.500000	0.749997	0.000000	1.131000
Zn	Zn	0.500000	0.249997	0.000000	1.128000
Zn	Zn	0.749997	-0.000000	0.500000	1.131000
Zn	Zn	0.249997	-0.000000	0.500000	1.128000
_end
